/*---------------------------------------------------------------------------*\
| =========                 |                                                 |
| \\      /  F ield         | OpenFOAM: The Open Source CFD Toolbox           |
|  \\    /   O peration     | Version:  4.1                                   |
|   \\  /    A nd           | Web:      www.OpenFOAM.org                      |
|    \\/     M anipulation  |                                                 |
\*---------------------------------------------------------------------------*/
Build  : 4.1
Exec   : pisoFoam -parallel
Date   : Jul 05 2018
Time   : 13:35:55
Host   : "cp1602"
PID    : 32170
Case   : /scratch/superran/lengthEffect/workingFolder/case_z_40Layer
nProcs : 24
Slaves : 
23
(
"cp1602.32171"
"cp1602.32172"
"cp1602.32173"
"cp1602.32174"
"cp1602.32175"
"cp1602.32176"
"cp1602.32177"
"cp1602.32178"
"cp1602.32179"
"cp1602.32180"
"cp1602.32184"
"cp1602.32190"
"cp1602.32194"
"cp1602.32229"
"cp1602.32247"
"cp1602.32251"
"cp1602.32256"
"cp1602.32276"
"cp1602.32315"
"cp1602.32351"
"cp1602.32375"
"cp1602.32391"
"cp1602.32409"
)

Pstream initialized with:
    floatTransfer      : 0
    nProcsSimpleSum    : 0
    commsType          : nonBlocking
    polling iterations : 0
sigFpe : Enabling floating point exception trapping (FOAM_SIGFPE).
fileModificationChecking : Monitoring run-time modified files using timeStampMaster
allowSystemOperations : Allowing user-supplied system call operations

// * * * * * * * * * * * * * * * * * * * * * * * * * * * * * * * * * * * * * //
Create time

Create mesh for time = 0


PISO: Operating solver in PISO mode

Reading field p

Reading field U

Reading/calculating face flux field phi

Selecting incompressible transport model Newtonian
Selecting turbulence model type LES
Selecting LES turbulence model SpalartAllmarasDDES
Selecting LES delta type cubeRootVol
Selecting patchDistMethod meshWave
SpalartAllmarasDESCoeffs
{
    Ce              1.048;
    sigmaNut        0.66666;
    kappa           0.41;
    Cb1             0.1355;
    Cb2             0.622;
    Cw2             0.3;
    Cw3             2;
    Cv1             7.1;
    Cs              0.3;
    CDES            0.65;
    ck              0.07;
}

No MRF models present

No finite volume options present


Starting time loop

forces forces:
    Not including porosity effects
forceCoeffs forces:
    Not including porosity effects
Time = 0.03

Courant Number mean: 0.000100376 max: 0.00377224
smoothSolver:  Solving for Ux, Initial residual = 1, Final residual = 1.53604e-10, No Iterations 2
smoothSolver:  Solving for Uy, Initial residual = 1, Final residual = 1.4254e-10, No Iterations 2
smoothSolver:  Solving for Uz, Initial residual = 1, Final residual = 1.53024e-10, No Iterations 2
GAMG:  Solving for p, Initial residual = 1, Final residual = 0.0434951, No Iterations 34
time step continuity errors : sum local = 8.73172e-06, global = -2.47179e-06, cumulative = -2.47179e-06
GAMG:  Solving for p, Initial residual = 0.000561787, Final residual = 2.76637e-05, No Iterations 26
time step continuity errors : sum local = 4.27884e-07, global = -1.21972e-07, cumulative = -2.59376e-06
GAMG:  Solving for p, Initial residual = 2.73682e-05, Final residual = 8.84087e-07, No Iterations 30
time step continuity errors : sum local = 1.37401e-08, global = -3.97073e-09, cumulative = -2.59773e-06
smoothSolver:  Solving for nuTilda, Initial residual = 1, Final residual = 1.79319e-08, No Iterations 8
bounding nuTilda, min: -9.00599e-17 max: 8.77804e-07 average: 2.78201e-10
ExecutionTime = 3.97 s  ClockTime = 4 s

forceCoeffs forces write:
    Cm    = 189.178
    Cd    = 378.355
    Cl    = 6.9078e-05
    Cl(f) = 189.178
    Cl(r) = -189.178

Time = 0.06

Courant Number mean: 0.0134334 max: 0.356714
smoothSolver:  Solving for Ux, Initial residual = 0.733298, Final residual = 4.47428e-08, No Iterations 3
smoothSolver:  Solving for Uy, Initial residual = 0.333022, Final residual = 1.55692e-08, No Iterations 3
smoothSolver:  Solving for Uz, Initial residual = 0.332944, Final residual = 4.52222e-09, No Iterations 3
GAMG:  Solving for p, Initial residual = 0.0203406, Final residual = 0.000846594, No Iterations 34
time step continuity errors : sum local = 8.70377e-06, global = 2.4664e-06, cumulative = -1.31329e-07
GAMG:  Solving for p, Initial residual = 0.00183976, Final residual = 9.03711e-05, No Iterations 24
time step continuity errors : sum local = 4.60909e-07, global = 1.31869e-07, cumulative = 5.40121e-10
GAMG:  Solving for p, Initial residual = 9.24669e-05, Final residual = 9.01052e-07, No Iterations 40
time step continuity errors : sum local = 4.63276e-09, global = 1.3443e-09, cumulative = 1.88442e-09
smoothSolver:  Solving for nuTilda, Initial residual = 0.000625279, Final residual = 8.64727e-08, No Iterations 2
bounding nuTilda, min: -1.45676e-27 max: 8.11068e-07 average: 5.35969e-10
ExecutionTime = 6.5 s  ClockTime = 6 s

forceCoeffs forces write:
    Cm    = -93.9249
    Cd    = -187.85
    Cl    = 0.00218879
    Cl(f) = -93.9238
    Cl(r) = 93.926

Time = 0.09

Courant Number mean: 0.0134519 max: 0.356957
smoothSolver:  Solving for Ux, Initial residual = 0.472884, Final residual = 2.92392e-08, No Iterations 3
smoothSolver:  Solving for Uy, Initial residual = 0.20783, Final residual = 9.54689e-09, No Iterations 3
smoothSolver:  Solving for Uz, Initial residual = 0.37796, Final residual = 4.96999e-09, No Iterations 3
GAMG:  Solving for p, Initial residual = 0.0142851, Final residual = 0.000567791, No Iterations 34
time step continuity errors : sum local = 2.89095e-06, global = -8.19257e-07, cumulative = -8.17373e-07
GAMG:  Solving for p, Initial residual = 0.0747773, Final residual = 0.00367222, No Iterations 24
time step continuity errors : sum local = 1.52771e-07, global = -4.37066e-08, cumulative = -8.61079e-07
GAMG:  Solving for p, Initial residual = 0.00291169, Final residual = 9.29595e-07, No Iterations 70
time step continuity errors : sum local = 5.02584e-11, global = -1.46131e-11, cumulative = -8.61094e-07
smoothSolver:  Solving for nuTilda, Initial residual = 0.000301464, Final residual = 3.65072e-08, No Iterations 2
bounding nuTilda, min: -2.85133e-74 max: 7.4952e-07 average: 7.75278e-10
ExecutionTime = 9.52 s  ClockTime = 9 s

forceCoeffs forces write:
    Cm    = 0.406219
    Cd    = 0.812474
    Cl    = -4.21843e-05
    Cl(f) = 0.406198
    Cl(r) = -0.40624

Time = 0.12

Courant Number mean: 0.0134675 max: 0.356755
smoothSolver:  Solving for Ux, Initial residual = 0.00528806, Final residual = 5.95102e-09, No Iterations 2
smoothSolver:  Solving for Uy, Initial residual = 0.00427922, Final residual = 2.17855e-09, No Iterations 2
smoothSolver:  Solving for Uz, Initial residual = 0.373871, Final residual = 6.52428e-08, No Iterations 2
GAMG:  Solving for p, Initial residual = 0.10141, Final residual = 0.00426928, No Iterations 8
time step continuity errors : sum local = 2.16215e-07, global = 4.4816e-08, cumulative = -8.16278e-07
GAMG:  Solving for p, Initial residual = 0.00534234, Final residual = 0.000262652, No Iterations 18
time step continuity errors : sum local = 1.06883e-08, global = 2.6975e-09, cumulative = -8.13581e-07
GAMG:  Solving for p, Initial residual = 0.000269186, Final residual = 8.78245e-07, No Iterations 48
time step continuity errors : sum local = 3.48732e-11, global = 1.0241e-11, cumulative = -8.1357e-07
smoothSolver:  Solving for nuTilda, Initial residual = 0.000199102, Final residual = 2.22086e-08, No Iterations 2
ExecutionTime = 11.53 s  ClockTime = 12 s

forceCoeffs forces write:
    Cm    = 0.311176
    Cd    = 0.622344
    Cl    = -0.00189161
    Cl(f) = 0.31023
    Cl(r) = -0.312121

Time = 0.15

Courant Number mean: 0.0134792 max: 0.356216
smoothSolver:  Solving for Ux, Initial residual = 0.00380315, Final residual = 4.39749e-09, No Iterations 2
smoothSolver:  Solving for Uy, Initial residual = 0.00308427, Final residual = 1.72338e-09, No Iterations 2
smoothSolver:  Solving for Uz, Initial residual = 0.327751, Final residual = 2.68681e-08, No Iterations 2
GAMG:  Solving for p, Initial residual = 0.0838266, Final residual = 0.00339632, No Iterations 8
time step continuity errors : sum local = 1.25564e-07, global = 2.68268e-08, cumulative = -7.86744e-07
GAMG:  Solving for p, Initial residual = 0.00399176, Final residual = 0.000193686, No Iterations 18
time step continuity errors : sum local = 6.13035e-09, global = 1.53418e-09, cumulative = -7.85209e-07
GAMG:  Solving for p, Initial residual = 0.000196527, Final residual = 9.78178e-07, No Iterations 44
time step continuity errors : sum local = 3.05014e-11, global = 8.79696e-12, cumulative = -7.85201e-07
smoothSolver:  Solving for nuTilda, Initial residual = 0.000151884, Final residual = 2.2001e-08, No Iterations 2
ExecutionTime = 13.47 s  ClockTime = 13 s

forceCoeffs forces write:
    Cm    = 0.26246
    Cd    = 0.524921
    Cl    = -0.000214386
    Cl(f) = 0.262353
    Cl(r) = -0.262567

Time = 0.18

Courant Number mean: 0.0134882 max: 0.355283
smoothSolver:  Solving for Ux, Initial residual = 0.00288459, Final residual = 3.49451e-09, No Iterations 2
smoothSolver:  Solving for Uy, Initial residual = 0.0023421, Final residual = 1.44103e-09, No Iterations 2
smoothSolver:  Solving for Uz, Initial residual = 0.311097, Final residual = 2.17297e-08, No Iterations 2
GAMG:  Solving for p, Initial residual = 0.0675188, Final residual = 0.00267775, No Iterations 8
time step continuity errors : sum local = 7.89183e-08, global = 1.68892e-08, cumulative = -7.68311e-07
GAMG:  Solving for p, Initial residual = 0.00301778, Final residual = 0.000148594, No Iterations 18
time step continuity errors : sum local = 3.9149e-09, global = 9.85508e-10, cumulative = -7.67326e-07
GAMG:  Solving for p, Initial residual = 0.000150091, Final residual = 9.31306e-07, No Iterations 42
time step continuity errors : sum local = 2.42939e-11, global = 7.12107e-12, cumulative = -7.67319e-07
smoothSolver:  Solving for nuTilda, Initial residual = 0.000126202, Final residual = 1.87327e-08, No Iterations 2
ExecutionTime = 15.37 s  ClockTime = 15 s

forceCoeffs forces write:
    Cm    = 0.232351
    Cd    = 0.464703
    Cl    = 0.000764796
    Cl(f) = 0.232734
    Cl(r) = -0.231969

Time = 0.21

Courant Number mean: 0.0134955 max: 0.35514
smoothSolver:  Solving for Ux, Initial residual = 0.00231354, Final residual = 2.94078e-09, No Iterations 2
smoothSolver:  Solving for Uy, Initial residual = 0.00189482, Final residual = 1.26087e-09, No Iterations 2
smoothSolver:  Solving for Uz, Initial residual = 0.313869, Final residual = 2.42172e-08, No Iterations 2
GAMG:  Solving for p, Initial residual = 0.0541362, Final residual = 0.0019856, No Iterations 8
time step continuity errors : sum local = 4.95407e-08, global = 1.0985e-08, cumulative = -7.56334e-07
GAMG:  Solving for p, Initial residual = 0.00217336, Final residual = 0.000107514, No Iterations 18
time step continuity errors : sum local = 2.47691e-09, global = 6.42443e-10, cumulative = -7.55691e-07
GAMG:  Solving for p, Initial residual = 0.000108275, Final residual = 9.37588e-07, No Iterations 40
time step continuity errors : sum local = 2.1477e-11, global = 6.26119e-12, cumulative = -7.55685e-07
smoothSolver:  Solving for nuTilda, Initial residual = 0.000110793, Final residual = 1.64332e-08, No Iterations 2
ExecutionTime = 17.3 s  ClockTime = 17 s

forceCoeffs forces write:
    Cm    = 0.213422
    Cd    = 0.426844
    Cl    = -0.000325172
    Cl(f) = 0.213259
    Cl(r) = -0.213585

Time = 0.24

Courant Number mean: 0.0135017 max: 0.355411
smoothSolver:  Solving for Ux, Initial residual = 0.0019552, Final residual = 2.61073e-09, No Iterations 2
smoothSolver:  Solving for Uy, Initial residual = 0.00162032, Final residual = 1.14871e-09, No Iterations 2
smoothSolver:  Solving for Uz, Initial residual = 0.284962, Final residual = 2.867e-08, No Iterations 2
GAMG:  Solving for p, Initial residual = 0.0441293, Final residual = 0.00212778, No Iterations 7
time step continuity errors : sum local = 4.69695e-08, global = -1.1813e-08, cumulative = -7.67498e-07
GAMG:  Solving for p, Initial residual = 0.0022865, Final residual = 0.000102235, No Iterations 17
time step continuity errors : sum local = 2.12173e-09, global = 5.47038e-10, cumulative = -7.66951e-07
GAMG:  Solving for p, Initial residual = 0.00010343, Final residual = 8.06352e-07, No Iterations 40
time step continuity errors : sum local = 1.66997e-11, global = 4.78241e-12, cumulative = -7.66946e-07
smoothSolver:  Solving for nuTilda, Initial residual = 0.000101081, Final residual = 1.52475e-08, No Iterations 2
ExecutionTime = 19.15 s  ClockTime = 19 s

forceCoeffs forces write:
    Cm    = 0.20055
    Cd    = 0.401099
    Cl    = -0.00109129
    Cl(f) = 0.200004
    Cl(r) = -0.201095

Time = 0.27

Courant Number mean: 0.0135074 max: 0.355642
smoothSolver:  Solving for Ux, Initial residual = 0.00172135, Final residual = 2.41075e-09, No Iterations 2
smoothSolver:  Solving for Uy, Initial residual = 0.00143583, Final residual = 1.07163e-09, No Iterations 2
smoothSolver:  Solving for Uz, Initial residual = 0.300829, Final residual = 2.60174e-08, No Iterations 2
GAMG:  Solving for p, Initial residual = 0.0375609, Final residual = 0.00136912, No Iterations 8
time step continuity errors : sum local = 2.7467e-08, global = 6.06414e-09, cumulative = -7.60882e-07
GAMG:  Solving for p, Initial residual = 0.00147232, Final residual = 7.0762e-05, No Iterations 20
time step continuity errors : sum local = 1.33743e-09, global = 3.48371e-10, cumulative = -7.60534e-07
GAMG:  Solving for p, Initial residual = 7.12275e-05, Final residual = 9.82089e-07, No Iterations 36
time step continuity errors : sum local = 1.84188e-11, global = 5.30527e-12, cumulative = -7.60528e-07
smoothSolver:  Solving for nuTilda, Initial residual = 9.47824e-05, Final residual = 1.47886e-08, No Iterations 2
ExecutionTime = 20.94 s  ClockTime = 21 s

forceCoeffs forces write:
    Cm    = 0.184411
    Cd    = 0.368822
    Cl    = -0.00153964
    Cl(f) = 0.183641
    Cl(r) = -0.185181

Time = 0.3

Courant Number mean: 0.0135125 max: 0.355838
smoothSolver:  Solving for Ux, Initial residual = 0.00153411, Final residual = 2.17966e-09, No Iterations 2
smoothSolver:  Solving for Uy, Initial residual = 0.00129934, Final residual = 1.00569e-09, No Iterations 2
smoothSolver:  Solving for Uz, Initial residual = 0.284037, Final residual = 2.30816e-08, No Iterations 2
GAMG:  Solving for p, Initial residual = 0.0330061, Final residual = 0.00132305, No Iterations 7
time step continuity errors : sum local = 2.41498e-08, global = -6.00468e-09, cumulative = -7.66533e-07
GAMG:  Solving for p, Initial residual = 0.00138933, Final residual = 6.05008e-05, No Iterations 22
time step continuity errors : sum local = 1.06906e-09, global = -3.09596e-10, cumulative = -7.66843e-07
GAMG:  Solving for p, Initial residual = 5.97915e-05, Final residual = 9.71873e-07, No Iterations 36
time step continuity errors : sum local = 1.72799e-11, global = -5.33072e-12, cumulative = -7.66848e-07
smoothSolver:  Solving for nuTilda, Initial residual = 9.06921e-05, Final residual = 1.42935e-08, No Iterations 2
ExecutionTime = 22.76 s  ClockTime = 23 s

forceCoeffs forces write:
    Cm    = 0.1823
    Cd    = 0.3646
    Cl    = 0.0047252
    Cl(f) = 0.184662
    Cl(r) = -0.179937

Time = 0.33

Courant Number mean: 0.0135176 max: 0.356007
smoothSolver:  Solving for Ux, Initial residual = 0.00143383, Final residual = 2.17261e-09, No Iterations 2
smoothSolver:  Solving for Uy, Initial residual = 0.00121112, Final residual = 9.76515e-10, No Iterations 2
smoothSolver:  Solving for Uz, Initial residual = 0.269148, Final residual = 2.26179e-08, No Iterations 2
GAMG:  Solving for p, Initial residual = 0.0297791, Final residual = 0.00120014, No Iterations 8
time step continuity errors : sum local = 2.08443e-08, global = 4.67604e-09, cumulative = -7.62172e-07
GAMG:  Solving for p, Initial residual = 0.00128585, Final residual = 5.55044e-05, No Iterations 24
time step continuity errors : sum local = 9.14482e-10, global = 2.70782e-10, cumulative = -7.61901e-07
GAMG:  Solving for p, Initial residual = 5.59008e-05, Final residual = 9.2353e-07, No Iterations 36
time step continuity errors : sum local = 1.50724e-11, global = 4.50877e-12, cumulative = -7.61897e-07
smoothSolver:  Solving for nuTilda, Initial residual = 8.80456e-05, Final residual = 1.42797e-08, No Iterations 2
ExecutionTime = 24.69 s  ClockTime = 25 s

forceCoeffs forces write:
    Cm    = 0.166252
    Cd    = 0.332504
    Cl    = -0.000988017
    Cl(f) = 0.165758
    Cl(r) = -0.166746

Time = 0.36

Courant Number mean: 0.0135221 max: 0.356131
smoothSolver:  Solving for Ux, Initial residual = 0.00130443, Final residual = 1.96423e-09, No Iterations 2
smoothSolver:  Solving for Uy, Initial residual = 0.00113161, Final residual = 9.27478e-10, No Iterations 2
smoothSolver:  Solving for Uz, Initial residual = 0.275735, Final residual = 2.35645e-08, No Iterations 2
GAMG:  Solving for p, Initial residual = 0.028756, Final residual = 0.00143482, No Iterations 5
time step continuity errors : sum local = 2.28931e-08, global = -5.0424e-09, cumulative = -7.66939e-07
GAMG:  Solving for p, Initial residual = 0.00149765, Final residual = 6.0898e-05, No Iterations 18
time step continuity errors : sum local = 9.42105e-10, global = -3.14119e-10, cumulative = -7.67253e-07
GAMG:  Solving for p, Initial residual = 6.0976e-05, Final residual = 8.73063e-07, No Iterations 36
time step continuity errors : sum local = 1.3525e-11, global = -4.04428e-12, cumulative = -7.67257e-07
smoothSolver:  Solving for nuTilda, Initial residual = 8.58687e-05, Final residual = 2.17932e-08, No Iterations 2
ExecutionTime = 26.44 s  ClockTime = 26 s

forceCoeffs forces write:
    Cm    = 0.161855
    Cd    = 0.32371
    Cl    = 0.00140816
    Cl(f) = 0.162559
    Cl(r) = -0.161151

Time = 0.39

Courant Number mean: 0.0135265 max: 0.356218
smoothSolver:  Solving for Ux, Initial residual = 0.00123761, Final residual = 1.92582e-09, No Iterations 2
smoothSolver:  Solving for Uy, Initial residual = 0.001064, Final residual = 8.97157e-10, No Iterations 2
smoothSolver:  Solving for Uz, Initial residual = 0.257713, Final residual = 2.57715e-08, No Iterations 2
GAMG:  Solving for p, Initial residual = 0.0275227, Final residual = 0.00131628, No Iterations 5
time step continuity errors : sum local = 1.99922e-08, global = -4.89312e-09, cumulative = -7.7215e-07
GAMG:  Solving for p, Initial residual = 0.00136482, Final residual = 5.83343e-05, No Iterations 22
time step continuity errors : sum local = 8.66689e-10, global = -2.50961e-10, cumulative = -7.72401e-07
GAMG:  Solving for p, Initial residual = 5.81042e-05, Final residual = 9.3279e-07, No Iterations 36
time step continuity errors : sum local = 1.39557e-11, global = -4.21597e-12, cumulative = -7.72405e-07
smoothSolver:  Solving for nuTilda, Initial residual = 8.35281e-05, Final residual = 2.06315e-08, No Iterations 2
ExecutionTime = 28.22 s  ClockTime = 28 s

forceCoeffs forces write:
    Cm    = 0.161228
    Cd    = 0.322456
    Cl    = 0.00544641
    Cl(f) = 0.163951
    Cl(r) = -0.158505

Time = 0.42

Courant Number mean: 0.013531 max: 0.356277
smoothSolver:  Solving for Ux, Initial residual = 0.00119887, Final residual = 1.95644e-09, No Iterations 2
smoothSolver:  Solving for Uy, Initial residual = 0.00101389, Final residual = 8.80224e-10, No Iterations 2
smoothSolver:  Solving for Uz, Initial residual = 0.276512, Final residual = 2.04345e-08, No Iterations 2
GAMG:  Solving for p, Initial residual = 0.0270455, Final residual = 0.00113927, No Iterations 8
time step continuity errors : sum local = 1.67442e-08, global = 4.68169e-09, cumulative = -7.67724e-07
GAMG:  Solving for p, Initial residual = 0.00119621, Final residual = 5.31627e-05, No Iterations 26
time step continuity errors : sum local = 7.56323e-10, global = 2.27656e-10, cumulative = -7.67496e-07
GAMG:  Solving for p, Initial residual = 5.30939e-05, Final residual = 8.96207e-07, No Iterations 36
time step continuity errors : sum local = 1.26567e-11, global = 3.79347e-12, cumulative = -7.67492e-07
smoothSolver:  Solving for nuTilda, Initial residual = 8.09555e-05, Final residual = 1.90471e-08, No Iterations 2
ExecutionTime = 30.12 s  ClockTime = 30 s

forceCoeffs forces write:
    Cm    = 0.151259
    Cd    = 0.302518
    Cl    = -0.00587493
    Cl(f) = 0.148322
    Cl(r) = -0.154197

Time = 0.45

Courant Number mean: 0.0135353 max: 0.356296
smoothSolver:  Solving for Ux, Initial residual = 0.00112652, Final residual = 1.84399e-09, No Iterations 2
smoothSolver:  Solving for Uy, Initial residual = 0.000983411, Final residual = 8.50964e-10, No Iterations 2
smoothSolver:  Solving for Uz, Initial residual = 0.262966, Final residual = 1.95981e-08, No Iterations 2
GAMG:  Solving for p, Initial residual = 0.0268235, Final residual = 0.00109275, No Iterations 7
time step continuity errors : sum local = 1.51863e-08, global = -4.0721e-09, cumulative = -7.71564e-07
GAMG:  Solving for p, Initial residual = 0.00112785, Final residual = 4.63215e-05, No Iterations 26
time step continuity errors : sum local = 6.35652e-10, global = -1.84359e-10, cumulative = -7.71749e-07
GAMG:  Solving for p, Initial residual = 4.56706e-05, Final residual = 9.20473e-07, No Iterations 34
time step continuity errors : sum local = 1.27297e-11, global = -3.69369e-12, cumulative = -7.71752e-07
smoothSolver:  Solving for nuTilda, Initial residual = 7.82582e-05, Final residual = 1.70132e-08, No Iterations 2
ExecutionTime = 31.96 s  ClockTime = 32 s

forceCoeffs forces write:
    Cm    = 0.152832
    Cd    = 0.305664
    Cl    = 0.000465382
    Cl(f) = 0.153065
    Cl(r) = -0.152599

Time = 0.48

Courant Number mean: 0.0135397 max: 0.356292
smoothSolver:  Solving for Ux, Initial residual = 0.00111234, Final residual = 1.90233e-09, No Iterations 2
smoothSolver:  Solving for Uy, Initial residual = 0.000936363, Final residual = 8.30259e-10, No Iterations 2
smoothSolver:  Solving for Uz, Initial residual = 0.27097, Final residual = 1.70225e-08, No Iterations 2
GAMG:  Solving for p, Initial residual = 0.026176, Final residual = 0.000979155, No Iterations 8
time step continuity errors : sum local = 1.33446e-08, global = 3.70425e-09, cumulative = -7.68048e-07
GAMG:  Solving for p, Initial residual = 0.00103309, Final residual = 4.45339e-05, No Iterations 26
time step continuity errors : sum local = 5.86914e-10, global = 1.86657e-10, cumulative = -7.67862e-07
GAMG:  Solving for p, Initial residual = 4.45335e-05, Final residual = 9.21548e-07, No Iterations 34
time step continuity errors : sum local = 1.20427e-11, global = 3.6949e-12, cumulative = -7.67858e-07
smoothSolver:  Solving for nuTilda, Initial residual = 7.56197e-05, Final residual = 1.56166e-08, No Iterations 2
ExecutionTime = 34.01 s  ClockTime = 34 s

forceCoeffs forces write:
    Cm    = 0.14169
    Cd    = 0.28338
    Cl    = 0.000659862
    Cl(f) = 0.14202
    Cl(r) = -0.14136

Time = 0.51

Courant Number mean: 0.0135439 max: 0.356242
smoothSolver:  Solving for Ux, Initial residual = 0.00106178, Final residual = 1.76926e-09, No Iterations 2
smoothSolver:  Solving for Uy, Initial residual = 0.000922042, Final residual = 8.15832e-10, No Iterations 2
smoothSolver:  Solving for Uz, Initial residual = 0.258442, Final residual = 1.72409e-08, No Iterations 2
GAMG:  Solving for p, Initial residual = 0.0265323, Final residual = 0.00107937, No Iterations 7
time step continuity errors : sum local = 1.39063e-08, global = -4.46049e-09, cumulative = -7.72318e-07
GAMG:  Solving for p, Initial residual = 0.00111146, Final residual = 5.16414e-05, No Iterations 26
time step continuity errors : sum local = 6.57592e-10, global = -1.98702e-10, cumulative = -7.72517e-07
GAMG:  Solving for p, Initial residual = 5.05735e-05, Final residual = 8.3493e-07, No Iterations 36
time step continuity errors : sum local = 1.07157e-11, global = -3.14378e-12, cumulative = -7.7252e-07
smoothSolver:  Solving for nuTilda, Initial residual = 7.31418e-05, Final residual = 1.47403e-08, No Iterations 2
ExecutionTime = 35.86 s  ClockTime = 36 s

forceCoeffs forces write:
    Cm    = 0.143686
    Cd    = 0.287372
    Cl    = 0.00348296
    Cl(f) = 0.145428
    Cl(r) = -0.141945

Time = 0.54

Courant Number mean: 0.0135481 max: 0.35616
smoothSolver:  Solving for Ux, Initial residual = 0.00105903, Final residual = 1.82884e-09, No Iterations 2
smoothSolver:  Solving for Uy, Initial residual = 0.000877485, Final residual = 7.98846e-10, No Iterations 2
smoothSolver:  Solving for Uz, Initial residual = 0.27298, Final residual = 2.09878e-08, No Iterations 2
GAMG:  Solving for p, Initial residual = 0.0259898, Final residual = 0.00121161, No Iterations 10
time step continuity errors : sum local = 1.53421e-08, global = 3.3547e-09, cumulative = -7.69166e-07
GAMG:  Solving for p, Initial residual = 0.00130096, Final residual = 5.53681e-05, No Iterations 26
time step continuity errors : sum local = 6.61665e-10, global = 1.90978e-10, cumulative = -7.68975e-07
GAMG:  Solving for p, Initial residual = 5.51951e-05, Final residual = 8.98491e-07, No Iterations 36
time step continuity errors : sum local = 1.06267e-11, global = 3.12978e-12, cumulative = -7.68971e-07
smoothSolver:  Solving for nuTilda, Initial residual = 7.08694e-05, Final residual = 1.43464e-08, No Iterations 2
ExecutionTime = 37.79 s  ClockTime = 38 s

forceCoeffs forces write:
    Cm    = 0.126714
    Cd    = 0.253428
    Cl    = -0.0043785
    Cl(f) = 0.124525
    Cl(r) = -0.128903

Time = 0.57

Courant Number mean: 0.0135517 max: 0.356035
smoothSolver:  Solving for Ux, Initial residual = 0.00099462, Final residual = 1.59673e-09, No Iterations 2
smoothSolver:  Solving for Uy, Initial residual = 0.000867883, Final residual = 7.74597e-10, No Iterations 2
smoothSolver:  Solving for Uz, Initial residual = 0.288242, Final residual = 2.45584e-08, No Iterations 2
GAMG:  Solving for p, Initial residual = 0.026585, Final residual = 0.00105839, No Iterations 9
time step continuity errors : sum local = 1.23651e-08, global = -2.68735e-09, cumulative = -7.71659e-07
GAMG:  Solving for p, Initial residual = 0.00105135, Final residual = 5.2093e-05, No Iterations 24
time step continuity errors : sum local = 6.25438e-10, global = -1.7667e-10, cumulative = -7.71835e-07
GAMG:  Solving for p, Initial residual = 5.11398e-05, Final residual = 8.11252e-07, No Iterations 36
time step continuity errors : sum local = 9.82019e-12, global = -2.85271e-12, cumulative = -7.71838e-07
smoothSolver:  Solving for nuTilda, Initial residual = 6.88189e-05, Final residual = 1.42504e-08, No Iterations 2
ExecutionTime = 39.66 s  ClockTime = 40 s

forceCoeffs forces write:
    Cm    = 0.13709
    Cd    = 0.27418
    Cl    = -0.00143025
    Cl(f) = 0.136375
    Cl(r) = -0.137805

Time = 0.6

Courant Number mean: 0.0135558 max: 0.356084
smoothSolver:  Solving for Ux, Initial residual = 0.00101957, Final residual = 1.77605e-09, No Iterations 2
smoothSolver:  Solving for Uy, Initial residual = 0.000843035, Final residual = 7.70571e-10, No Iterations 2
smoothSolver:  Solving for Uz, Initial residual = 0.249028, Final residual = 1.63428e-08, No Iterations 2
GAMG:  Solving for p, Initial residual = 0.0251435, Final residual = 0.00101693, No Iterations 6
time step continuity errors : sum local = 1.21709e-08, global = 4.25115e-09, cumulative = -7.67587e-07
GAMG:  Solving for p, Initial residual = 0.00105662, Final residual = 4.40653e-05, No Iterations 24
time step continuity errors : sum local = 5.17864e-10, global = 1.64078e-10, cumulative = -7.67423e-07
GAMG:  Solving for p, Initial residual = 4.38513e-05, Final residual = 8.81355e-07, No Iterations 34
time step continuity errors : sum local = 1.02834e-11, global = 3.16975e-12, cumulative = -7.6742e-07
smoothSolver:  Solving for nuTilda, Initial residual = 6.69899e-05, Final residual = 1.43083e-08, No Iterations 2
ExecutionTime = 41.43 s  ClockTime = 42 s

forceCoeffs forces write:
    Cm    = 0.130812
    Cd    = 0.261623
    Cl    = -0.000115161
    Cl(f) = 0.130754
    Cl(r) = -0.130869

Time = 0.63

Courant Number mean: 0.0135598 max: 0.356439
smoothSolver:  Solving for Ux, Initial residual = 0.000997413, Final residual = 1.71843e-09, No Iterations 2
smoothSolver:  Solving for Uy, Initial residual = 0.000837517, Final residual = 7.6304e-10, No Iterations 2
smoothSolver:  Solving for Uz, Initial residual = 0.251836, Final residual = 1.92393e-08, No Iterations 2
GAMG:  Solving for p, Initial residual = 0.0251506, Final residual = 0.00104832, No Iterations 4
time step continuity errors : sum local = 1.20926e-08, global = 2.76051e-09, cumulative = -7.64659e-07
GAMG:  Solving for p, Initial residual = 0.00107807, Final residual = 5.24126e-05, No Iterations 18
time step continuity errors : sum local = 5.95246e-10, global = 2.02683e-10, cumulative = -7.64457e-07
GAMG:  Solving for p, Initial residual = 5.25439e-05, Final residual = 9.94817e-07, No Iterations 34
time step continuity errors : sum local = 1.12796e-11, global = 4.41904e-12, cumulative = -7.64452e-07
smoothSolver:  Solving for nuTilda, Initial residual = 6.53647e-05, Final residual = 1.44159e-08, No Iterations 2
ExecutionTime = 43.08 s  ClockTime = 43 s

forceCoeffs forces write:
    Cm    = 0.128097
    Cd    = 0.256194
    Cl    = -0.000332881
    Cl(f) = 0.127931
    Cl(r) = -0.128264

Time = 0.66

Courant Number mean: 0.0135637 max: 0.356786
smoothSolver:  Solving for Ux, Initial residual = 0.000982363, Final residual = 1.70161e-09, No Iterations 2
smoothSolver:  Solving for Uy, Initial residual = 0.000816376, Final residual = 7.49655e-10, No Iterations 2
smoothSolver:  Solving for Uz, Initial residual = 0.239023, Final residual = 1.55001e-08, No Iterations 2
GAMG:  Solving for p, Initial residual = 0.0252265, Final residual = 0.00112977, No Iterations 4
time step continuity errors : sum local = 1.26787e-08, global = 3.52511e-09, cumulative = -7.60927e-07
GAMG:  Solving for p, Initial residual = 0.00116017, Final residual = 5.75009e-05, No Iterations 18
time step continuity errors : sum local = 6.36149e-10, global = 2.52981e-10, cumulative = -7.60674e-07
GAMG:  Solving for p, Initial residual = 5.76489e-05, Final residual = 9.12994e-07, No Iterations 36
time step continuity errors : sum local = 1.00783e-11, global = 3.96742e-12, cumulative = -7.6067e-07
smoothSolver:  Solving for nuTilda, Initial residual = 6.39257e-05, Final residual = 1.43931e-08, No Iterations 2
ExecutionTime = 44.84 s  ClockTime = 45 s

forceCoeffs forces write:
    Cm    = 0.1247
    Cd    = 0.2494
    Cl    = 0.00205442
    Cl(f) = 0.125727
    Cl(r) = -0.123673

Time = 0.69

Courant Number mean: 0.0135676 max: 0.357123
smoothSolver:  Solving for Ux, Initial residual = 0.000962172, Final residual = 1.67074e-09, No Iterations 2
smoothSolver:  Solving for Uy, Initial residual = 0.000806676, Final residual = 7.44623e-10, No Iterations 2
smoothSolver:  Solving for Uz, Initial residual = 0.254047, Final residual = 1.91823e-08, No Iterations 2
GAMG:  Solving for p, Initial residual = 0.0255077, Final residual = 0.000968357, No Iterations 5
time step continuity errors : sum local = 1.05865e-08, global = -2.64318e-09, cumulative = -7.63313e-07
GAMG:  Solving for p, Initial residual = 0.000990902, Final residual = 4.89166e-05, No Iterations 22
time step continuity errors : sum local = 5.32917e-10, global = -1.61548e-10, cumulative = -7.63475e-07
GAMG:  Solving for p, Initial residual = 4.84075e-05, Final residual = 8.14912e-07, No Iterations 36
time step continuity errors : sum local = 8.9349e-12, global = -2.72261e-12, cumulative = -7.63478e-07
smoothSolver:  Solving for nuTilda, Initial residual = 6.26453e-05, Final residual = 1.45687e-08, No Iterations 2
ExecutionTime = 46.62 s  ClockTime = 47 s

forceCoeffs forces write:
    Cm    = 0.125622
    Cd    = 0.251243
    Cl    = 0.00447626
    Cl(f) = 0.12786
    Cl(r) = -0.123383

Time = 0.72

Courant Number mean: 0.0135716 max: 0.357454
smoothSolver:  Solving for Ux, Initial residual = 0.000960709, Final residual = 1.70853e-09, No Iterations 2
smoothSolver:  Solving for Uy, Initial residual = 0.000801854, Final residual = 7.47849e-10, No Iterations 2
smoothSolver:  Solving for Uz, Initial residual = 0.260133, Final residual = 1.76103e-08, No Iterations 2
GAMG:  Solving for p, Initial residual = 0.0249772, Final residual = 0.00119454, No Iterations 8
time step continuity errors : sum local = 1.29751e-08, global = 3.34485e-09, cumulative = -7.60133e-07
GAMG:  Solving for p, Initial residual = 0.00124334, Final residual = 5.21632e-05, No Iterations 26
time step continuity errors : sum local = 5.5115e-10, global = 1.74627e-10, cumulative = -7.59958e-07
GAMG:  Solving for p, Initial residual = 5.16686e-05, Final residual = 9.02436e-07, No Iterations 36
time step continuity errors : sum local = 9.47724e-12, global = 2.97023e-12, cumulative = -7.59955e-07
smoothSolver:  Solving for nuTilda, Initial residual = 6.14977e-05, Final residual = 1.47792e-08, No Iterations 2
ExecutionTime = 48.68 s  ClockTime = 49 s

forceCoeffs forces write:
    Cm    = 0.120066
    Cd    = 0.240133
    Cl    = -0.00239396
    Cl(f) = 0.118869
    Cl(r) = -0.121263

Time = 0.75

Courant Number mean: 0.0135754 max: 0.357772
smoothSolver:  Solving for Ux, Initial residual = 0.000938638, Final residual = 1.64581e-09, No Iterations 2
smoothSolver:  Solving for Uy, Initial residual = 0.00077167, Final residual = 7.19785e-10, No Iterations 2
smoothSolver:  Solving for Uz, Initial residual = 0.263194, Final residual = 2.26807e-08, No Iterations 2
GAMG:  Solving for p, Initial residual = 0.0257716, Final residual = 0.00116135, No Iterations 5
time step continuity errors : sum local = 1.20903e-08, global = -3.65213e-09, cumulative = -7.63607e-07
GAMG:  Solving for p, Initial residual = 0.00118701, Final residual = 5.40991e-05, No Iterations 22
time step continuity errors : sum local = 5.5955e-10, global = -1.82794e-10, cumulative = -7.6379e-07
GAMG:  Solving for p, Initial residual = 5.31743e-05, Final residual = 9.5086e-07, No Iterations 33
time step continuity errors : sum local = 9.86028e-12, global = 3.78993e-12, cumulative = -7.63786e-07
smoothSolver:  Solving for nuTilda, Initial residual = 6.04528e-05, Final residual = 1.51982e-08, No Iterations 2
ExecutionTime = 50.4 s  ClockTime = 51 s

forceCoeffs forces write:
    Cm    = 0.118856
    Cd    = 0.237712
    Cl    = -0.003347
    Cl(f) = 0.117182
    Cl(r) = -0.120529

Time = 0.78

Courant Number mean: 0.0135793 max: 0.358081
smoothSolver:  Solving for Ux, Initial residual = 0.000925007, Final residual = 1.64383e-09, No Iterations 2
smoothSolver:  Solving for Uy, Initial residual = 0.000771469, Final residual = 7.21765e-10, No Iterations 2
smoothSolver:  Solving for Uz, Initial residual = 0.243445, Final residual = 2.12033e-08, No Iterations 2
GAMG:  Solving for p, Initial residual = 0.0251143, Final residual = 0.00105966, No Iterations 7
time step continuity errors : sum local = 1.08961e-08, global = -3.86599e-09, cumulative = -7.67652e-07
GAMG:  Solving for p, Initial residual = 0.00108919, Final residual = 4.6849e-05, No Iterations 26
time step continuity errors : sum local = 4.771e-10, global = -1.56982e-10, cumulative = -7.67809e-07
GAMG:  Solving for p, Initial residual = 4.59465e-05, Final residual = 8.08154e-07, No Iterations 36
time step continuity errors : sum local = 8.24732e-12, global = -2.51579e-12, cumulative = -7.67812e-07
smoothSolver:  Solving for nuTilda, Initial residual = 5.95046e-05, Final residual = 1.53825e-08, No Iterations 2
ExecutionTime = 52.27 s  ClockTime = 52 s

forceCoeffs forces write:
    Cm    = 0.1182
    Cd    = 0.236401
    Cl    = 0.00340995
    Cl(f) = 0.119905
    Cl(r) = -0.116496

Time = 0.81

Courant Number mean: 0.0135831 max: 0.358383
smoothSolver:  Solving for Ux, Initial residual = 0.000922645, Final residual = 1.655e-09, No Iterations 2
smoothSolver:  Solving for Uy, Initial residual = 0.000754946, Final residual = 7.17886e-10, No Iterations 2
smoothSolver:  Solving for Uz, Initial residual = 0.245467, Final residual = 1.8457e-08, No Iterations 2
GAMG:  Solving for p, Initial residual = 0.0250095, Final residual = 0.000927599, No Iterations 7
time step continuity errors : sum local = 9.3964e-09, global = -2.64693e-09, cumulative = -7.70459e-07
GAMG:  Solving for p, Initial residual = 0.000942784, Final residual = 4.65466e-05, No Iterations 24
time step continuity errors : sum local = 4.73516e-10, global = -1.76181e-10, cumulative = -7.70635e-07
GAMG:  Solving for p, Initial residual = 4.59444e-05, Final residual = 9.66717e-07, No Iterations 34
time step continuity errors : sum local = 9.87401e-12, global = -3.87944e-12, cumulative = -7.70639e-07
smoothSolver:  Solving for nuTilda, Initial residual = 5.86307e-05, Final residual = 1.55333e-08, No Iterations 2
ExecutionTime = 54.47 s  ClockTime = 55 s

forceCoeffs forces write:
    Cm    = 0.120614
    Cd    = 0.241229
    Cl    = -0.00289243
    Cl(f) = 0.119168
    Cl(r) = -0.122061

Time = 0.84

Courant Number mean: 0.0135872 max: 0.358709
smoothSolver:  Solving for Ux, Initial residual = 0.000928408, Final residual = 1.71586e-09, No Iterations 2
smoothSolver:  Solving for Uy, Initial residual = 0.000742097, Final residual = 7.0804e-10, No Iterations 2
smoothSolver:  Solving for Uz, Initial residual = 0.250279, Final residual = 1.97845e-08, No Iterations 2
GAMG:  Solving for p, Initial residual = 0.0251975, Final residual = 0.00110093, No Iterations 10
time step continuity errors : sum local = 1.11569e-08, global = 2.60158e-09, cumulative = -7.68037e-07
GAMG:  Solving for p, Initial residual = 0.00118586, Final residual = 4.7203e-05, No Iterations 26
time step continuity errors : sum local = 4.52247e-10, global = 1.44416e-10, cumulative = -7.67893e-07
GAMG:  Solving for p, Initial residual = 4.70355e-05, Final residual = 9.56624e-07, No Iterations 34
time step continuity errors : sum local = 9.08597e-12, global = 2.81051e-12, cumulative = -7.6789e-07
smoothSolver:  Solving for nuTilda, Initial residual = 5.78152e-05, Final residual = 1.57746e-08, No Iterations 2
ExecutionTime = 56.35 s  ClockTime = 57 s

forceCoeffs forces write:
    Cm    = 0.10691
    Cd    = 0.213819
    Cl    = 0.0041737
    Cl(f) = 0.108997
    Cl(r) = -0.104823

Time = 0.87

Courant Number mean: 0.0135907 max: 0.359023
smoothSolver:  Solving for Ux, Initial residual = 0.000876023, Final residual = 1.5165e-09, No Iterations 2
smoothSolver:  Solving for Uy, Initial residual = 0.000744622, Final residual = 7.06185e-10, No Iterations 2
smoothSolver:  Solving for Uz, Initial residual = 0.262106, Final residual = 1.92747e-08, No Iterations 2
GAMG:  Solving for p, Initial residual = 0.0263229, Final residual = 0.00120739, No Iterations 5
time step continuity errors : sum local = 1.13836e-08, global = -2.71538e-09, cumulative = -7.70605e-07
GAMG:  Solving for p, Initial residual = 0.00121354, Final residual = 4.8942e-05, No Iterations 24
time step continuity errors : sum local = 4.66225e-10, global = -1.50056e-10, cumulative = -7.70755e-07
GAMG:  Solving for p, Initial residual = 4.80832e-05, Final residual = 9.40781e-07, No Iterations 34
time step continuity errors : sum local = 9.03696e-12, global = -2.91362e-12, cumulative = -7.70758e-07
smoothSolver:  Solving for nuTilda, Initial residual = 5.70417e-05, Final residual = 1.6022e-08, No Iterations 2
ExecutionTime = 58.11 s  ClockTime = 58 s

forceCoeffs forces write:
    Cm    = 0.111224
    Cd    = 0.222448
    Cl    = -0.000821142
    Cl(f) = 0.110814
    Cl(r) = -0.111635

Time = 0.9

Courant Number mean: 0.0135944 max: 0.359334
smoothSolver:  Solving for Ux, Initial residual = 0.000884052, Final residual = 1.58979e-09, No Iterations 2
smoothSolver:  Solving for Uy, Initial residual = 0.000734464, Final residual = 6.99321e-10, No Iterations 2
smoothSolver:  Solving for Uz, Initial residual = 0.257799, Final residual = 2.30838e-08, No Iterations 2
GAMG:  Solving for p, Initial residual = 0.0256211, Final residual = 0.000891961, No Iterations 5
time step continuity errors : sum local = 8.51225e-09, global = -2.66369e-09, cumulative = -7.73422e-07
GAMG:  Solving for p, Initial residual = 0.000913215, Final residual = 3.75059e-05, No Iterations 24
time step continuity errors : sum local = 3.56323e-10, global = -1.05907e-10, cumulative = -7.73528e-07
GAMG:  Solving for p, Initial residual = 3.6857e-05, Final residual = 9.50558e-07, No Iterations 32
time step continuity errors : sum local = 9.09011e-12, global = -2.69465e-12, cumulative = -7.73531e-07
smoothSolver:  Solving for nuTilda, Initial residual = 5.63063e-05, Final residual = 1.62777e-08, No Iterations 2
ExecutionTime = 59.85 s  ClockTime = 60 s

forceCoeffs forces write:
    Cm    = 0.112345
    Cd    = 0.224689
    Cl    = 0.000103114
    Cl(f) = 0.112396
    Cl(r) = -0.112293

Time = 0.93

Courant Number mean: 0.0135981 max: 0.359643
smoothSolver:  Solving for Ux, Initial residual = 0.000883157, Final residual = 1.62747e-09, No Iterations 2
smoothSolver:  Solving for Uy, Initial residual = 0.000721862, Final residual = 6.95113e-10, No Iterations 2
smoothSolver:  Solving for Uz, Initial residual = 0.256369, Final residual = 1.91107e-08, No Iterations 2
GAMG:  Solving for p, Initial residual = 0.0250095, Final residual = 0.000970585, No Iterations 8
time step continuity errors : sum local = 9.21691e-09, global = 2.13859e-09, cumulative = -7.71392e-07
GAMG:  Solving for p, Initial residual = 0.0010256, Final residual = 4.64384e-05, No Iterations 22
time step continuity errors : sum local = 4.2581e-10, global = 1.24026e-10, cumulative = -7.71268e-07
GAMG:  Solving for p, Initial residual = 4.64993e-05, Final residual = 8.53966e-07, No Iterations 34
time step continuity errors : sum local = 7.75588e-12, global = 2.32714e-12, cumulative = -7.71266e-07
smoothSolver:  Solving for nuTilda, Initial residual = 5.55895e-05, Final residual = 1.65326e-08, No Iterations 2
ExecutionTime = 61.63 s  ClockTime = 62 s

forceCoeffs forces write:
    Cm    = 0.103978
    Cd    = 0.207956
    Cl    = 0.00444606
    Cl(f) = 0.106201
    Cl(r) = -0.101755

Time = 0.96

Courant Number mean: 0.0136016 max: 0.35994
smoothSolver:  Solving for Ux, Initial residual = 0.000853401, Final residual = 1.51041e-09, No Iterations 2
smoothSolver:  Solving for Uy, Initial residual = 0.000717946, Final residual = 6.93887e-10, No Iterations 2
smoothSolver:  Solving for Uz, Initial residual = 0.235794, Final residual = 1.60001e-08, No Iterations 2
GAMG:  Solving for p, Initial residual = 0.0257362, Final residual = 0.00102232, No Iterations 7
time step continuity errors : sum local = 9.22452e-09, global = -2.85057e-09, cumulative = -7.74116e-07
GAMG:  Solving for p, Initial residual = 0.00103757, Final residual = 4.78994e-05, No Iterations 24
time step continuity errors : sum local = 4.34427e-10, global = -1.6946e-10, cumulative = -7.74286e-07
GAMG:  Solving for p, Initial residual = 4.75078e-05, Final residual = 8.69457e-07, No Iterations 35
time step continuity errors : sum local = 7.90726e-12, global = 2.79512e-12, cumulative = -7.74283e-07
smoothSolver:  Solving for nuTilda, Initial residual = 5.48921e-05, Final residual = 1.64884e-08, No Iterations 2
ExecutionTime = 63.67 s  ClockTime = 64 s

forceCoeffs forces write:
    Cm    = 0.105734
    Cd    = 0.211467
    Cl    = -0.00351505
    Cl(f) = 0.103976
    Cl(r) = -0.107491

Time = 0.99

Courant Number mean: 0.0136052 max: 0.360231
smoothSolver:  Solving for Ux, Initial residual = 0.000854358, Final residual = 1.54613e-09, No Iterations 2
smoothSolver:  Solving for Uy, Initial residual = 0.000712536, Final residual = 6.84138e-10, No Iterations 2
smoothSolver:  Solving for Uz, Initial residual = 0.246997, Final residual = 1.82341e-08, No Iterations 2
GAMG:  Solving for p, Initial residual = 0.02558, Final residual = 0.00117234, No Iterations 5
time step continuity errors : sum local = 1.05976e-08, global = -2.80238e-09, cumulative = -7.77085e-07
GAMG:  Solving for p, Initial residual = 0.00118927, Final residual = 5.60047e-05, No Iterations 18
time step continuity errors : sum local = 5.07079e-10, global = -1.30285e-10, cumulative = -7.77216e-07
GAMG:  Solving for p, Initial residual = 5.49966e-05, Final residual = 9.89958e-07, No Iterations 32
time step continuity errors : sum local = 9.00869e-12, global = -2.61189e-12, cumulative = -7.77218e-07
smoothSolver:  Solving for nuTilda, Initial residual = 5.42038e-05, Final residual = 1.66535e-08, No Iterations 2
ExecutionTime = 65.31 s  ClockTime = 65 s

forceCoeffs forces write:
    Cm    = 0.106819
    Cd    = 0.213639
    Cl    = -0.00193424
    Cl(f) = 0.105852
    Cl(r) = -0.107787

Time = 1.02

Courant Number mean: 0.0136088 max: 0.36052
smoothSolver:  Solving for Ux, Initial residual = 0.000855703, Final residual = 1.57779e-09, No Iterations 2
smoothSolver:  Solving for Uy, Initial residual = 0.000712934, Final residual = 6.8597e-10, No Iterations 2
smoothSolver:  Solving for Uz, Initial residual = 0.247007, Final residual = 2.07001e-08, No Iterations 2
GAMG:  Solving for p, Initial residual = 0.0246547, Final residual = 0.00120032, No Iterations 6
time step continuity errors : sum local = 1.08614e-08, global = 3.7598e-09, cumulative = -7.73458e-07
GAMG:  Solving for p, Initial residual = 0.00123761, Final residual = 5.8633e-05, No Iterations 22
time step continuity errors : sum local = 5.22309e-10, global = 2.14456e-10, cumulative = -7.73244e-07
GAMG:  Solving for p, Initial residual = 5.83586e-05, Final residual = 8.03191e-07, No Iterations 37
time step continuity errors : sum local = 7.13288e-12, global = -2.21085e-12, cumulative = -7.73246e-07
smoothSolver:  Solving for nuTilda, Initial residual = 5.3515e-05, Final residual = 1.68089e-08, No Iterations 2
ExecutionTime = 67.13 s  ClockTime = 67 s

forceCoeffs forces write:
    Cm    = 0.104702
    Cd    = 0.209403
    Cl    = 0.00287685
    Cl(f) = 0.10614
    Cl(r) = -0.103263

Time = 1.05

Courant Number mean: 0.0136124 max: 0.360802
smoothSolver:  Solving for Ux, Initial residual = 0.000846313, Final residual = 1.55796e-09, No Iterations 2
smoothSolver:  Solving for Uy, Initial residual = 0.000694097, Final residual = 6.80311e-10, No Iterations 2
smoothSolver:  Solving for Uz, Initial residual = 0.233628, Final residual = 1.57431e-08, No Iterations 2
GAMG:  Solving for p, Initial residual = 0.0255524, Final residual = 0.00102379, No Iterations 5
time step continuity errors : sum local = 9.04814e-09, global = -2.23897e-09, cumulative = -7.75485e-07
GAMG:  Solving for p, Initial residual = 0.00102775, Final residual = 4.17704e-05, No Iterations 22
time step continuity errors : sum local = 3.74819e-10, global = -1.0461e-10, cumulative = -7.7559e-07
GAMG:  Solving for p, Initial residual = 4.09959e-05, Final residual = 8.84721e-07, No Iterations 32
time step continuity errors : sum local = 7.99518e-12, global = -2.3043e-12, cumulative = -7.75592e-07
smoothSolver:  Solving for nuTilda, Initial residual = 5.28235e-05, Final residual = 1.69587e-08, No Iterations 2
ExecutionTime = 68.81 s  ClockTime = 69 s

forceCoeffs forces write:
    Cm    = 0.109083
    Cd    = 0.218166
    Cl    = 0.000147169
    Cl(f) = 0.109157
    Cl(r) = -0.10901

Time = 1.08

Courant Number mean: 0.0136163 max: 0.361083
smoothSolver:  Solving for Ux, Initial residual = 0.000862949, Final residual = 1.64266e-09, No Iterations 2
smoothSolver:  Solving for Uy, Initial residual = 0.00068857, Final residual = 6.77617e-10, No Iterations 2
smoothSolver:  Solving for Uz, Initial residual = 0.240337, Final residual = 1.75212e-08, No Iterations 2
GAMG:  Solving for p, Initial residual = 0.0250785, Final residual = 0.00124908, No Iterations 8
time step continuity errors : sum local = 1.12211e-08, global = 2.23644e-09, cumulative = -7.73356e-07
GAMG:  Solving for p, Initial residual = 0.00133903, Final residual = 5.46295e-05, No Iterations 24
time step continuity errors : sum local = 4.65285e-10, global = 1.34203e-10, cumulative = -7.73221e-07
GAMG:  Solving for p, Initial residual = 5.48866e-05, Final residual = 8.72669e-07, No Iterations 36
time step continuity errors : sum local = 7.34803e-12, global = 2.16475e-12, cumulative = -7.73219e-07
smoothSolver:  Solving for nuTilda, Initial residual = 5.21109e-05, Final residual = 1.71033e-08, No Iterations 2
ExecutionTime = 70.67 s  ClockTime = 71 s

forceCoeffs forces write:
    Cm    = 0.0979361
    Cd    = 0.195872
    Cl    = 0.00116217
    Cl(f) = 0.0985172
    Cl(r) = -0.097355

Time = 1.11

Courant Number mean: 0.0136197 max: 0.361346
smoothSolver:  Solving for Ux, Initial residual = 0.000815707, Final residual = 1.47462e-09, No Iterations 2
smoothSolver:  Solving for Uy, Initial residual = 0.000678921, Final residual = 6.68513e-10, No Iterations 2
smoothSolver:  Solving for Uz, Initial residual = 0.263848, Final residual = 2.42621e-08, No Iterations 2
GAMG:  Solving for p, Initial residual = 0.0261846, Final residual = 0.00098838, No Iterations 5
time step continuity errors : sum local = 8.27726e-09, global = -1.87539e-09, cumulative = -7.75095e-07
GAMG:  Solving for p, Initial residual = 0.000998444, Final residual = 4.35373e-05, No Iterations 20
time step continuity errors : sum local = 3.68968e-10, global = -1.02601e-10, cumulative = -7.75197e-07
GAMG:  Solving for p, Initial residual = 4.3018e-05, Final residual = 8.92787e-07, No Iterations 32
time step continuity errors : sum local = 7.6189e-12, global = -2.25729e-12, cumulative = -7.752e-07
smoothSolver:  Solving for nuTilda, Initial residual = 5.13795e-05, Final residual = 1.72386e-08, No Iterations 2
ExecutionTime = 72.33 s  ClockTime = 73 s

forceCoeffs forces write:
    Cm    = 0.101368
    Cd    = 0.202737
    Cl    = -0.00214325
    Cl(f) = 0.100297
    Cl(r) = -0.10244

Time = 1.14

Courant Number mean: 0.0136232 max: 0.361604
smoothSolver:  Solving for Ux, Initial residual = 0.000824447, Final residual = 1.5303e-09, No Iterations 2
smoothSolver:  Solving for Uy, Initial residual = 0.000677447, Final residual = 6.67126e-10, No Iterations 2
smoothSolver:  Solving for Uz, Initial residual = 0.238364, Final residual = 1.80394e-08, No Iterations 2
GAMG:  Solving for p, Initial residual = 0.0257214, Final residual = 0.00102277, No Iterations 5
time step continuity errors : sum local = 8.68938e-09, global = -2.3935e-09, cumulative = -7.77593e-07
GAMG:  Solving for p, Initial residual = 0.00102846, Final residual = 4.93903e-05, No Iterations 24
time step continuity errors : sum local = 4.25819e-10, global = -1.30314e-10, cumulative = -7.77723e-07
GAMG:  Solving for p, Initial residual = 4.848e-05, Final residual = 8.26497e-07, No Iterations 36
time step continuity errors : sum local = 7.18486e-12, global = -2.18056e-12, cumulative = -7.77726e-07
smoothSolver:  Solving for nuTilda, Initial residual = 5.06235e-05, Final residual = 1.73729e-08, No Iterations 2
ExecutionTime = 74.21 s  ClockTime = 74 s

forceCoeffs forces write:
    Cm    = 0.105483
    Cd    = 0.210966
    Cl    = 0.000927853
    Cl(f) = 0.105947
    Cl(r) = -0.105019

Time = 1.17

Courant Number mean: 0.013627 max: 0.36186
smoothSolver:  Solving for Ux, Initial residual = 0.000839602, Final residual = 1.6102e-09, No Iterations 2
smoothSolver:  Solving for Uy, Initial residual = 0.000678687, Final residual = 6.73823e-10, No Iterations 2
smoothSolver:  Solving for Uz, Initial residual = 0.250181, Final residual = 2.08722e-08, No Iterations 2
GAMG:  Solving for p, Initial residual = 0.0252252, Final residual = 0.000895738, No Iterations 4
time step continuity errors : sum local = 7.75207e-09, global = 2.00091e-09, cumulative = -7.75725e-07
GAMG:  Solving for p, Initial residual = 0.000914879, Final residual = 4.4329e-05, No Iterations 17
time step continuity errors : sum local = 3.82255e-10, global = -1.43624e-10, cumulative = -7.75868e-07
GAMG:  Solving for p, Initial residual = 4.42607e-05, Final residual = 8.91599e-07, No Iterations 32
time step continuity errors : sum local = 7.69239e-12, global = -2.43399e-12, cumulative = -7.75871e-07
smoothSolver:  Solving for nuTilda, Initial residual = 4.98395e-05, Final residual = 1.74751e-08, No Iterations 2
ExecutionTime = 75.82 s  ClockTime = 76 s

forceCoeffs forces write:
    Cm    = 0.105372
    Cd    = 0.210743
    Cl    = 0.000998982
    Cl(f) = 0.105871
    Cl(r) = -0.104872

Time = 1.2

Courant Number mean: 0.0136308 max: 0.362112
smoothSolver:  Solving for Ux, Initial residual = 0.000840875, Final residual = 1.62556e-09, No Iterations 2
smoothSolver:  Solving for Uy, Initial residual = 0.000673345, Final residual = 6.70886e-10, No Iterations 2
smoothSolver:  Solving for Uz, Initial residual = 0.231497, Final residual = 1.63111e-08, No Iterations 2
GAMG:  Solving for p, Initial residual = 0.0251144, Final residual = 0.00094472, No Iterations 10
time step continuity errors : sum local = 8.10638e-09, global = 1.67892e-09, cumulative = -7.74192e-07
GAMG:  Solving for p, Initial residual = 0.00103135, Final residual = 4.78112e-05, No Iterations 24
time step continuity errors : sum local = 3.85667e-10, global = 1.11787e-10, cumulative = -7.7408e-07
GAMG:  Solving for p, Initial residual = 4.75865e-05, Final residual = 9.78771e-07, No Iterations 34
time step continuity errors : sum local = 7.83384e-12, global = 2.33527e-12, cumulative = -7.74078e-07
smoothSolver:  Solving for nuTilda, Initial residual = 4.90188e-05, Final residual = 1.76251e-08, No Iterations 2
ExecutionTime = 77.86 s  ClockTime = 78 s

forceCoeffs forces write:
    Cm    = 0.0943792
    Cd    = 0.188758
    Cl    = -0.00337114
    Cl(f) = 0.0926936
    Cl(r) = -0.0960648

Time = 1.23

Courant Number mean: 0.0136342 max: 0.362344
smoothSolver:  Solving for Ux, Initial residual = 0.000796665, Final residual = 1.45536e-09, No Iterations 2
smoothSolver:  Solving for Uy, Initial residual = 0.00065956, Final residual = 6.56738e-10, No Iterations 2
smoothSolver:  Solving for Uz, Initial residual = 0.235988, Final residual = 1.31469e-08, No Iterations 2
GAMG:  Solving for p, Initial residual = 0.0267156, Final residual = 0.00117474, No Iterations 5
time step continuity errors : sum local = 9.35845e-09, global = 1.0143e-10, cumulative = -7.73976e-07
GAMG:  Solving for p, Initial residual = 0.00117285, Final residual = 5.0148e-05, No Iterations 19
time step continuity errors : sum local = 4.08532e-10, global = -1.10226e-10, cumulative = -7.74086e-07
GAMG:  Solving for p, Initial residual = 4.95857e-05, Final residual = 9.35504e-07, No Iterations 34
time step continuity errors : sum local = 7.67856e-12, global = -2.30647e-12, cumulative = -7.74089e-07
smoothSolver:  Solving for nuTilda, Initial residual = 4.81671e-05, Final residual = 1.77556e-08, No Iterations 2
ExecutionTime = 79.54 s  ClockTime = 80 s

forceCoeffs forces write:
    Cm    = 0.0991842
    Cd    = 0.198368
    Cl    = 0.00121881
    Cl(f) = 0.0997936
    Cl(r) = -0.0985747

Time = 1.26

Courant Number mean: 0.0136378 max: 0.362571
smoothSolver:  Solving for Ux, Initial residual = 0.000806533, Final residual = 1.52688e-09, No Iterations 2
smoothSolver:  Solving for Uy, Initial residual = 0.000662923, Final residual = 6.64698e-10, No Iterations 2
smoothSolver:  Solving for Uz, Initial residual = 0.220593, Final residual = 1.56486e-08, No Iterations 2
GAMG:  Solving for p, Initial residual = 0.0262816, Final residual = 0.00115949, No Iterations 6
time step continuity errors : sum local = 9.47644e-09, global = 3.55029e-09, cumulative = -7.70538e-07
GAMG:  Solving for p, Initial residual = 0.00118615, Final residual = 5.08973e-05, No Iterations 25
time step continuity errors : sum local = 4.13856e-10, global = -1.46812e-10, cumulative = -7.70685e-07
GAMG:  Solving for p, Initial residual = 5.06485e-05, Final residual = 8.87336e-07, No Iterations 36
time step continuity errors : sum local = 7.20657e-12, global = -2.26335e-12, cumulative = -7.70688e-07
smoothSolver:  Solving for nuTilda, Initial residual = 4.72906e-05, Final residual = 1.78732e-08, No Iterations 2
ExecutionTime = 81.38 s  ClockTime = 82 s

forceCoeffs forces write:
    Cm    = 0.0990486
    Cd    = 0.198097
    Cl    = 0.00340802
    Cl(f) = 0.100753
    Cl(r) = -0.0973446

Time = 1.29

Courant Number mean: 0.0136413 max: 0.362793
smoothSolver:  Solving for Ux, Initial residual = 0.00080804, Final residual = 1.53706e-09, No Iterations 2
smoothSolver:  Solving for Uy, Initial residual = 0.0006562, Final residual = 6.65339e-10, No Iterations 2
smoothSolver:  Solving for Uz, Initial residual = 0.252906, Final residual = 1.82175e-08, No Iterations 2
GAMG:  Solving for p, Initial residual = 0.0260889, Final residual = 0.00106072, No Iterations 10
time step continuity errors : sum local = 8.57267e-09, global = 2.32529e-09, cumulative = -7.68362e-07
GAMG:  Solving for p, Initial residual = 0.00110998, Final residual = 5.32994e-05, No Iterations 26
time step continuity errors : sum local = 4.19928e-10, global = 1.33172e-10, cumulative = -7.68229e-07
GAMG:  Solving for p, Initial residual = 5.27111e-05, Final residual = 9.27834e-07, No Iterations 36
time step continuity errors : sum local = 7.26847e-12, global = 2.268e-12, cumulative = -7.68227e-07
smoothSolver:  Solving for nuTilda, Initial residual = 4.63831e-05, Final residual = 1.79967e-08, No Iterations 2
ExecutionTime = 83.3 s  ClockTime = 83 s

forceCoeffs forces write:
    Cm    = 0.094929
    Cd    = 0.189858
    Cl    = -0.00187866
    Cl(f) = 0.0939896
    Cl(r) = -0.0958683

Time = 1.32

Courant Number mean: 0.0136447 max: 0.363004
smoothSolver:  Solving for Ux, Initial residual = 0.000791518, Final residual = 1.47513e-09, No Iterations 2
smoothSolver:  Solving for Uy, Initial residual = 0.000639307, Final residual = 6.52943e-10, No Iterations 2
smoothSolver:  Solving for Uz, Initial residual = 0.223776, Final residual = 1.50344e-08, No Iterations 2
GAMG:  Solving for p, Initial residual = 0.0268957, Final residual = 0.00130851, No Iterations 5
time step continuity errors : sum local = 1.02029e-08, global = -2.95334e-09, cumulative = -7.7118e-07
GAMG:  Solving for p, Initial residual = 0.00132826, Final residual = 5.81175e-05, No Iterations 26
time step continuity errors : sum local = 4.54413e-10, global = -1.51854e-10, cumulative = -7.71332e-07
GAMG:  Solving for p, Initial residual = 5.68936e-05, Final residual = 9.99926e-07, No Iterations 36
time step continuity errors : sum local = 7.84812e-12, global = -2.53817e-12, cumulative = -7.71335e-07
smoothSolver:  Solving for nuTilda, Initial residual = 4.54516e-05, Final residual = 1.81919e-08, No Iterations 2
ExecutionTime = 85.16 s  ClockTime = 85 s

forceCoeffs forces write:
    Cm    = 0.095678
    Cd    = 0.191356
    Cl    = 0.00114286
    Cl(f) = 0.0962494
    Cl(r) = -0.0951066

Time = 1.35

Courant Number mean: 0.0136481 max: 0.363322
smoothSolver:  Solving for Ux, Initial residual = 0.000790995, Final residual = 1.49064e-09, No Iterations 2
smoothSolver:  Solving for Uy, Initial residual = 0.000647325, Final residual = 6.61071e-10, No Iterations 2
smoothSolver:  Solving for Uz, Initial residual = 0.229017, Final residual = 1.2609e-08, No Iterations 2
GAMG:  Solving for p, Initial residual = 0.0269314, Final residual = 0.00101562, No Iterations 7
time step continuity errors : sum local = 7.94148e-09, global = -2.37079e-09, cumulative = -7.73705e-07
GAMG:  Solving for p, Initial residual = 0.00103308, Final residual = 4.48119e-05, No Iterations 24
time step continuity errors : sum local = 3.53195e-10, global = -1.30571e-10, cumulative = -7.73836e-07
GAMG:  Solving for p, Initial residual = 4.37498e-05, Final residual = 8.88497e-07, No Iterations 34
time step continuity errors : sum local = 7.02503e-12, global = -2.6908e-12, cumulative = -7.73839e-07
smoothSolver:  Solving for nuTilda, Initial residual = 4.45123e-05, Final residual = 1.84009e-08, No Iterations 2
ExecutionTime = 86.97 s  ClockTime = 87 s

forceCoeffs forces write:
    Cm    = 0.0979029
    Cd    = 0.195806
    Cl    = 4.63984e-05
    Cl(f) = 0.0979261
    Cl(r) = -0.0978797

Time = 1.38

Courant Number mean: 0.0136517 max: 0.363772
smoothSolver:  Solving for Ux, Initial residual = 0.000798478, Final residual = 1.53208e-09, No Iterations 2
smoothSolver:  Solving for Uy, Initial residual = 0.00064445, Final residual = 6.61567e-10, No Iterations 2
smoothSolver:  Solving for Uz, Initial residual = 0.232443, Final residual = 1.52136e-08, No Iterations 2
GAMG:  Solving for p, Initial residual = 0.0261887, Final residual = 0.0010523, No Iterations 4
time step continuity errors : sum local = 8.28804e-09, global = 2.11813e-09, cumulative = -7.7172e-07
GAMG:  Solving for p, Initial residual = 0.00107439, Final residual = 4.26136e-05, No Iterations 19
time step continuity errors : sum local = 3.34001e-10, global = -1.15004e-10, cumulative = -7.71835e-07
GAMG:  Solving for p, Initial residual = 4.2356e-05, Final residual = 8.71401e-07, No Iterations 32
time step continuity errors : sum local = 6.83003e-12, global = -2.0641e-12, cumulative = -7.71838e-07
smoothSolver:  Solving for nuTilda, Initial residual = 4.35717e-05, Final residual = 1.84739e-08, No Iterations 2
ExecutionTime = 88.59 s  ClockTime = 89 s

forceCoeffs forces write:
    Cm    = 0.0978173
    Cd    = 0.195634
    Cl    = -0.0012005
    Cl(f) = 0.097217
    Cl(r) = -0.0984175

Time = 1.41

Courant Number mean: 0.0136553 max: 0.364221
smoothSolver:  Solving for Ux, Initial residual = 0.000797187, Final residual = 1.5405e-09, No Iterations 2
smoothSolver:  Solving for Uy, Initial residual = 0.000640813, Final residual = 6.6195e-10, No Iterations 2
smoothSolver:  Solving for Uz, Initial residual = 0.231427, Final residual = 1.84998e-08, No Iterations 2
GAMG:  Solving for p, Initial residual = 0.0264852, Final residual = 0.00101015, No Iterations 5
time step continuity errors : sum local = 7.8928e-09, global = -1.75697e-09, cumulative = -7.73594e-07
GAMG:  Solving for p, Initial residual = 0.00101572, Final residual = 4.37902e-05, No Iterations 22
time step continuity errors : sum local = 3.47447e-10, global = -1.07904e-10, cumulative = -7.73702e-07
GAMG:  Solving for p, Initial residual = 4.29738e-05, Final residual = 8.92987e-07, No Iterations 34
time step continuity errors : sum local = 7.11895e-12, global = -2.13632e-12, cumulative = -7.73705e-07
smoothSolver:  Solving for nuTilda, Initial residual = 4.26364e-05, Final residual = 1.851e-08, No Iterations 2
ExecutionTime = 90.33 s  ClockTime = 91 s

forceCoeffs forces write:
    Cm    = 0.101439
    Cd    = 0.202879
    Cl    = 4.6529e-05
    Cl(f) = 0.101463
    Cl(r) = -0.101416

Time = 1.44

Courant Number mean: 0.0136591 max: 0.364673
smoothSolver:  Solving for Ux, Initial residual = 0.000818407, Final residual = 1.60985e-09, No Iterations 2
smoothSolver:  Solving for Uy, Initial residual = 0.000630766, Final residual = 6.58187e-10, No Iterations 2
smoothSolver:  Solving for Uz, Initial residual = 0.236595, Final residual = 1.90339e-08, No Iterations 2
GAMG:  Solving for p, Initial residual = 0.0254072, Final residual = 0.000990227, No Iterations 10
time step continuity errors : sum local = 7.86416e-09, global = 2.01988e-09, cumulative = -7.71685e-07
GAMG:  Solving for p, Initial residual = 0.00106292, Final residual = 4.68452e-05, No Iterations 26
time step continuity errors : sum local = 3.55082e-10, global = 1.14016e-10, cumulative = -7.71571e-07
GAMG:  Solving for p, Initial residual = 4.64882e-05, Final residual = 9.78663e-07, No Iterations 34
time step continuity errors : sum local = 7.35693e-12, global = 2.25567e-12, cumulative = -7.71568e-07
smoothSolver:  Solving for nuTilda, Initial residual = 4.17144e-05, Final residual = 1.8553e-08, No Iterations 2
ExecutionTime = 92.33 s  ClockTime = 93 s

forceCoeffs forces write:
    Cm    = 0.0929026
    Cd    = 0.185805
    Cl    = 0.00163264
    Cl(f) = 0.0937189
    Cl(r) = -0.0920863

Time = 1.47

Courant Number mean: 0.0136626 max: 0.365115
smoothSolver:  Solving for Ux, Initial residual = 0.000772408, Final residual = 1.47617e-09, No Iterations 2
smoothSolver:  Solving for Uy, Initial residual = 0.000642524, Final residual = 6.6921e-10, No Iterations 2
smoothSolver:  Solving for Uz, Initial residual = 0.214036, Final residual = 1.52087e-08, No Iterations 2
GAMG:  Solving for p, Initial residual = 0.0266892, Final residual = 0.00132915, No Iterations 8
time step continuity errors : sum local = 9.96171e-09, global = -2.6085e-09, cumulative = -7.74177e-07
GAMG:  Solving for p, Initial residual = 0.00129661, Final residual = 6.05892e-05, No Iterations 24
time step continuity errors : sum local = 4.72607e-10, global = -1.59946e-10, cumulative = -7.74337e-07
GAMG:  Solving for p, Initial residual = 5.90684e-05, Final residual = 9.6713e-07, No Iterations 36
time step continuity errors : sum local = 7.63231e-12, global = -2.57232e-12, cumulative = -7.74339e-07
smoothSolver:  Solving for nuTilda, Initial residual = 4.08252e-05, Final residual = 1.86331e-08, No Iterations 2
ExecutionTime = 94.24 s  ClockTime = 94 s

forceCoeffs forces write:
    Cm    = 0.101463
    Cd    = 0.202926
    Cl    = -0.00373319
    Cl(f) = 0.0995964
    Cl(r) = -0.10333

Time = 1.5

Courant Number mean: 0.0136664 max: 0.365563
smoothSolver:  Solving for Ux, Initial residual = 0.000810634, Final residual = 1.61414e-09, No Iterations 2
smoothSolver:  Solving for Uy, Initial residual = 0.000629705, Final residual = 6.62478e-10, No Iterations 2
smoothSolver:  Solving for Uz, Initial residual = 0.225979, Final residual = 1.61188e-08, No Iterations 2
GAMG:  Solving for p, Initial residual = 0.0264808, Final residual = 0.00130993, No Iterations 6
time step continuity errors : sum local = 1.02997e-08, global = 3.3015e-09, cumulative = -7.71038e-07
GAMG:  Solving for p, Initial residual = 0.00136347, Final residual = 5.7819e-05, No Iterations 24
time step continuity errors : sum local = 4.42009e-10, global = 1.31638e-10, cumulative = -7.70906e-07
GAMG:  Solving for p, Initial residual = 5.78669e-05, Final residual = 8.91212e-07, No Iterations 36
time step continuity errors : sum local = 6.70521e-12, global = 1.96661e-12, cumulative = -7.70904e-07
smoothSolver:  Solving for nuTilda, Initial residual = 3.99828e-05, Final residual = 1.86225e-08, No Iterations 2
ExecutionTime = 96.06 s  ClockTime = 96 s

forceCoeffs forces write:
    Cm    = 0.0949174
    Cd    = 0.189835
    Cl    = -0.00153083
    Cl(f) = 0.094152
    Cl(r) = -0.0956828

Time = 1.53

Courant Number mean: 0.01367 max: 0.366004
smoothSolver:  Solving for Ux, Initial residual = 0.000782801, Final residual = 1.51786e-09, No Iterations 2
smoothSolver:  Solving for Uy, Initial residual = 0.000631481, Final residual = 6.64334e-10, No Iterations 2
smoothSolver:  Solving for Uz, Initial residual = 0.231792, Final residual = 2.03973e-08, No Iterations 2
GAMG:  Solving for p, Initial residual = 0.0276478, Final residual = 0.00122617, No Iterations 4
time step continuity errors : sum local = 9.18902e-09, global = 2.31914e-09, cumulative = -7.68585e-07
GAMG:  Solving for p, Initial residual = 0.00125396, Final residual = 4.9971e-05, No Iterations 20
time step continuity errors : sum local = 3.70799e-10, global = 1.03589e-10, cumulative = -7.68482e-07
GAMG:  Solving for p, Initial residual = 5.00702e-05, Final residual = 8.82226e-07, No Iterations 34
time step continuity errors : sum local = 6.49249e-12, global = 1.99531e-12, cumulative = -7.6848e-07
smoothSolver:  Solving for nuTilda, Initial residual = 3.9194e-05, Final residual = 2.01563e-08, No Iterations 2
ExecutionTime = 97.74 s  ClockTime = 98 s

forceCoeffs forces write:
    Cm    = 0.0923435
    Cd    = 0.184687
    Cl    = -0.00149355
    Cl(f) = 0.0915967
    Cl(r) = -0.0930903

Time = 1.56

Courant Number mean: 0.0136735 max: 0.366439
smoothSolver:  Solving for Ux, Initial residual = 0.000769565, Final residual = 1.47327e-09, No Iterations 2
smoothSolver:  Solving for Uy, Initial residual = 0.000635483, Final residual = 6.69229e-10, No Iterations 2
smoothSolver:  Solving for Uz, Initial residual = 0.230185, Final residual = 1.93887e-08, No Iterations 2
GAMG:  Solving for p, Initial residual = 0.0271616, Final residual = 0.000960234, No Iterations 4
time step continuity errors : sum local = 7.03895e-09, global = 1.30673e-09, cumulative = -7.67173e-07
GAMG:  Solving for p, Initial residual = 0.000983449, Final residual = 4.72386e-05, No Iterations 21
time step continuity errors : sum local = 3.45126e-10, global = -1.02419e-10, cumulative = -7.67275e-07
GAMG:  Solving for p, Initial residual = 4.71002e-05, Final residual = 9.71332e-07, No Iterations 34
time step continuity errors : sum local = 7.11547e-12, global = -2.12696e-12, cumulative = -7.67277e-07
smoothSolver:  Solving for nuTilda, Initial residual = 3.84637e-05, Final residual = 2.02877e-08, No Iterations 2
ExecutionTime = 99.45 s  ClockTime = 100 s

forceCoeffs forces write:
    Cm    = 0.0929808
    Cd    = 0.185962
    Cl    = 0.00255733
    Cl(f) = 0.0942594
    Cl(r) = -0.0917021

Time = 1.59

Courant Number mean: 0.0136769 max: 0.366872
smoothSolver:  Solving for Ux, Initial residual = 0.000771123, Final residual = 1.48027e-09, No Iterations 2
smoothSolver:  Solving for Uy, Initial residual = 0.000629316, Final residual = 6.74497e-10, No Iterations 2
smoothSolver:  Solving for Uz, Initial residual = 0.212419, Final residual = 1.47729e-08, No Iterations 2
GAMG:  Solving for p, Initial residual = 0.0274061, Final residual = 0.00126959, No Iterations 6
time step continuity errors : sum local = 9.28047e-09, global = -3.46974e-09, cumulative = -7.70747e-07
GAMG:  Solving for p, Initial residual = 0.00125258, Final residual = 6.02487e-05, No Iterations 22
time step continuity errors : sum local = 4.53342e-10, global = -1.40486e-10, cumulative = -7.70888e-07
GAMG:  Solving for p, Initial residual = 5.85989e-05, Final residual = 9.72976e-07, No Iterations 34
time step continuity errors : sum local = 7.40894e-12, global = -2.44732e-12, cumulative = -7.7089e-07
smoothSolver:  Solving for nuTilda, Initial residual = 3.77897e-05, Final residual = 1.92325e-08, No Iterations 2
ExecutionTime = 101.21 s  ClockTime = 101 s

forceCoeffs forces write:
    Cm    = 0.0993066
    Cd    = 0.198613
    Cl    = -0.00566488
    Cl(f) = 0.0964741
    Cl(r) = -0.102139

Time = 1.62

Courant Number mean: 0.0136806 max: 0.367311
smoothSolver:  Solving for Ux, Initial residual = 0.000790817, Final residual = 1.58862e-09, No Iterations 2
smoothSolver:  Solving for Uy, Initial residual = 0.000632193, Final residual = 6.75394e-10, No Iterations 2
smoothSolver:  Solving for Uz, Initial residual = 0.23373, Final residual = 1.57476e-08, No Iterations 2
GAMG:  Solving for p, Initial residual = 0.0263386, Final residual = 0.000945994, No Iterations 6
time step continuity errors : sum local = 7.18219e-09, global = -2.13342e-09, cumulative = -7.73023e-07
GAMG:  Solving for p, Initial residual = 0.000971717, Final residual = 4.41436e-05, No Iterations 24
time step continuity errors : sum local = 3.34981e-10, global = -1.06668e-10, cumulative = -7.7313e-07
GAMG:  Solving for p, Initial residual = 4.30852e-05, Final residual = 9.1513e-07, No Iterations 34
time step continuity errors : sum local = 6.97768e-12, global = -2.11392e-12, cumulative = -7.73132e-07
smoothSolver:  Solving for nuTilda, Initial residual = 3.71742e-05, Final residual = 1.78591e-08, No Iterations 2
ExecutionTime = 102.99 s  ClockTime = 103 s

forceCoeffs forces write:
    Cm    = 0.101005
    Cd    = 0.202009
    Cl    = 0.00327713
    Cl(f) = 0.102643
    Cl(r) = -0.099366

Time = 1.65

Courant Number mean: 0.0136845 max: 0.367755
smoothSolver:  Solving for Ux, Initial residual = 0.000809428, Final residual = 1.62931e-09, No Iterations 2
smoothSolver:  Solving for Uy, Initial residual = 0.000614039, Final residual = 6.73875e-10, No Iterations 2
smoothSolver:  Solving for Uz, Initial residual = 0.230978, Final residual = 1.80542e-08, No Iterations 2
GAMG:  Solving for p, Initial residual = 0.0258835, Final residual = 0.000997732, No Iterations 12
time step continuity errors : sum local = 7.58017e-09, global = 1.88806e-09, cumulative = -7.71244e-07
GAMG:  Solving for p, Initial residual = 0.00109955, Final residual = 4.79805e-05, No Iterations 26
time step continuity errors : sum local = 3.37958e-10, global = 9.69441e-11, cumulative = -7.71147e-07
GAMG:  Solving for p, Initial residual = 4.76466e-05, Final residual = 9.62549e-07, No Iterations 34
time step continuity errors : sum local = 6.7165e-12, global = 1.95052e-12, cumulative = -7.71145e-07
smoothSolver:  Solving for nuTilda, Initial residual = 3.66132e-05, Final residual = 1.83496e-08, No Iterations 2
ExecutionTime = 104.97 s  ClockTime = 105 s

forceCoeffs forces write:
    Cm    = 0.0884462
    Cd    = 0.176892
    Cl    = 0.00036783
    Cl(f) = 0.0886301
    Cl(r) = -0.0882622

Time = 1.68

Courant Number mean: 0.0136879 max: 0.368183
smoothSolver:  Solving for Ux, Initial residual = 0.000747764, Final residual = 1.42491e-09, No Iterations 2
smoothSolver:  Solving for Uy, Initial residual = 0.00063038, Final residual = 6.81961e-10, No Iterations 2
smoothSolver:  Solving for Uz, Initial residual = 0.220571, Final residual = 1.81296e-08, No Iterations 2
GAMG:  Solving for p, Initial residual = 0.0280674, Final residual = 0.00106065, No Iterations 6
time step continuity errors : sum local = 7.3787e-09, global = -2.51395e-09, cumulative = -7.73659e-07
GAMG:  Solving for p, Initial residual = 0.00105879, Final residual = 4.56465e-05, No Iterations 24
time step continuity errors : sum local = 3.24224e-10, global = -9.82422e-11, cumulative = -7.73757e-07
GAMG:  Solving for p, Initial residual = 4.44856e-05, Final residual = 8.92564e-07, No Iterations 34
time step continuity errors : sum local = 6.40547e-12, global = -1.89906e-12, cumulative = -7.73759e-07
smoothSolver:  Solving for nuTilda, Initial residual = 3.60958e-05, Final residual = 1.89454e-08, No Iterations 2
ExecutionTime = 106.75 s  ClockTime = 107 s

forceCoeffs forces write:
    Cm    = 0.0935787
    Cd    = 0.187157
    Cl    = -0.000519988
    Cl(f) = 0.0933187
    Cl(r) = -0.0938387

Time = 1.71

Courant Number mean: 0.0136914 max: 0.368613
smoothSolver:  Solving for Ux, Initial residual = 0.000766571, Final residual = 1.49908e-09, No Iterations 2
smoothSolver:  Solving for Uy, Initial residual = 0.000622052, Final residual = 6.78806e-10, No Iterations 2
smoothSolver:  Solving for Uz, Initial residual = 0.219956, Final residual = 1.64262e-08, No Iterations 2
GAMG:  Solving for p, Initial residual = 0.0269724, Final residual = 0.00121053, No Iterations 5
time step continuity errors : sum local = 8.66842e-09, global = -2.86993e-09, cumulative = -7.76629e-07
GAMG:  Solving for p, Initial residual = 0.00123269, Final residual = 5.72893e-05, No Iterations 24
time step continuity errors : sum local = 4.10475e-10, global = -1.54795e-10, cumulative = -7.76784e-07
GAMG:  Solving for p, Initial residual = 5.61648e-05, Final residual = 9.56032e-07, No Iterations 36
time step continuity errors : sum local = 6.875e-12, global = -2.59122e-12, cumulative = -7.76787e-07
smoothSolver:  Solving for nuTilda, Initial residual = 3.56249e-05, Final residual = 1.93655e-08, No Iterations 2
ExecutionTime = 108.68 s  ClockTime = 109 s

forceCoeffs forces write:
    Cm    = 0.095193
    Cd    = 0.190386
    Cl    = -0.00140895
    Cl(f) = 0.0944886
    Cl(r) = -0.0958975

Time = 1.74

Courant Number mean: 0.013695 max: 0.369045
smoothSolver:  Solving for Ux, Initial residual = 0.000773034, Final residual = 1.5278e-09, No Iterations 2
smoothSolver:  Solving for Uy, Initial residual = 0.000610318, Final residual = 6.78636e-10, No Iterations 2
smoothSolver:  Solving for Uz, Initial residual = 0.224323, Final residual = 1.67032e-08, No Iterations 2
GAMG:  Solving for p, Initial residual = 0.0270989, Final residual = 0.00127036, No Iterations 8
time step continuity errors : sum local = 9.10715e-09, global = 3.12699e-09, cumulative = -7.7366e-07
GAMG:  Solving for p, Initial residual = 0.00132922, Final residual = 6.16822e-05, No Iterations 26
time step continuity errors : sum local = 4.28672e-10, global = 1.45803e-10, cumulative = -7.73514e-07
GAMG:  Solving for p, Initial residual = 6.11744e-05, Final residual = 8.25054e-07, No Iterations 38
time step continuity errors : sum local = 5.66492e-12, global = 1.839e-12, cumulative = -7.73512e-07
smoothSolver:  Solving for nuTilda, Initial residual = 3.51784e-05, Final residual = 1.97058e-08, No Iterations 2
ExecutionTime = 110.6 s  ClockTime = 111 s

forceCoeffs forces write:
    Cm    = 0.088566
    Cd    = 0.177132
    Cl    = 0.00272705
    Cl(f) = 0.0899295
    Cl(r) = -0.0872024

Time = 1.77

Courant Number mean: 0.0136983 max: 0.36947
smoothSolver:  Solving for Ux, Initial residual = 0.000744817, Final residual = 1.42092e-09, No Iterations 2
smoothSolver:  Solving for Uy, Initial residual = 0.000625336, Final residual = 6.91416e-10, No Iterations 2
smoothSolver:  Solving for Uz, Initial residual = 0.210344, Final residual = 1.2929e-08, No Iterations 2
GAMG:  Solving for p, Initial residual = 0.0291541, Final residual = 0.00140697, No Iterations 7
time step continuity errors : sum local = 9.63485e-09, global = -3.23603e-09, cumulative = -7.76748e-07
GAMG:  Solving for p, Initial residual = 0.00141653, Final residual = 6.17444e-05, No Iterations 26
time step continuity errors : sum local = 4.26885e-10, global = -1.56326e-10, cumulative = -7.76904e-07
GAMG:  Solving for p, Initial residual = 6.00018e-05, Final residual = 8.36137e-07, No Iterations 38
time step continuity errors : sum local = 5.81515e-12, global = -2.04464e-12, cumulative = -7.76906e-07
smoothSolver:  Solving for nuTilda, Initial residual = 3.47531e-05, Final residual = 1.96873e-08, No Iterations 2
ExecutionTime = 112.5 s  ClockTime = 113 s

forceCoeffs forces write:
    Cm    = 0.0922817
    Cd    = 0.184563
    Cl    = 0.000492745
    Cl(f) = 0.0925281
    Cl(r) = -0.0920354

Time = 1.8

Courant Number mean: 0.0137017 max: 0.369896
smoothSolver:  Solving for Ux, Initial residual = 0.000757146, Final residual = 1.47456e-09, No Iterations 2
smoothSolver:  Solving for Uy, Initial residual = 0.000604132, Final residual = 6.83625e-10, No Iterations 2
smoothSolver:  Solving for Uz, Initial residual = 0.222688, Final residual = 1.34134e-08, No Iterations 2
GAMG:  Solving for p, Initial residual = 0.0278843, Final residual = 0.00116006, No Iterations 6
time step continuity errors : sum local = 8.04795e-09, global = -2.82174e-09, cumulative = -7.79728e-07
GAMG:  Solving for p, Initial residual = 0.00117553, Final residual = 5.15771e-05, No Iterations 22
time step continuity errors : sum local = 3.59624e-10, global = -1.31279e-10, cumulative = -7.79859e-07
GAMG:  Solving for p, Initial residual = 5.04697e-05, Final residual = 8.63514e-07, No Iterations 33
time step continuity errors : sum local = 6.0393e-12, global = 2.36326e-12, cumulative = -7.79857e-07
smoothSolver:  Solving for nuTilda, Initial residual = 3.43426e-05, Final residual = 1.94923e-08, No Iterations 2
ExecutionTime = 114.61 s  ClockTime = 115 s

forceCoeffs forces write:
    Cm    = 0.0932774
    Cd    = 0.186555
    Cl    = -0.00248731
    Cl(f) = 0.0920337
    Cl(r) = -0.094521

Time = 1.83

Courant Number mean: 0.0137051 max: 0.370325
smoothSolver:  Solving for Ux, Initial residual = 0.00075813, Final residual = 1.49635e-09, No Iterations 2
smoothSolver:  Solving for Uy, Initial residual = 0.000610054, Final residual = 6.87343e-10, No Iterations 2
smoothSolver:  Solving for Uz, Initial residual = 0.218579, Final residual = 1.60491e-08, No Iterations 2
GAMG:  Solving for p, Initial residual = 0.0268141, Final residual = 0.00101343, No Iterations 6
[...]
smoothSolver:  Solving for Uy, Initial residual = 0.000361482, Final residual = 1.58226e-09, No Iterations 2
smoothSolver:  Solving for Uz, Initial residual = 0.0715109, Final residual = 6.39425e-09, No Iterations 3
GAMG:  Solving for p, Initial residual = 0.100073, Final residual = 0.00401816, No Iterations 6
time step continuity errors : sum local = 7.211e-09, global = 2.42362e-09, cumulative = -6.74477e-07
GAMG:  Solving for p, Initial residual = 0.00385577, Final residual = 0.000152428, No Iterations 24
time step continuity errors : sum local = 2.88758e-10, global = 8.69487e-11, cumulative = -6.7439e-07
GAMG:  Solving for p, Initial residual = 0.000147615, Final residual = 8.60464e-07, No Iterations 44
time step continuity errors : sum local = 1.66998e-12, global = 5.18629e-13, cumulative = -6.74389e-07
smoothSolver:  Solving for nuTilda, Initial residual = 7.44481e-06, Final residual = 2.77904e-08, No Iterations 1
ExecutionTime = 4184.79 s  ClockTime = 4205 s

forceCoeffs forces write:
    Cm    = 0.289937
    Cd    = 0.579889
    Cl    = -0.00310242
    Cl(f) = 0.288386
    Cl(r) = -0.291489

Time = 66.09

Courant Number mean: 0.0164365 max: 0.587971
smoothSolver:  Solving for Ux, Initial residual = 0.000117461, Final residual = 4.05969e-08, No Iterations 1
smoothSolver:  Solving for Uy, Initial residual = 0.000370801, Final residual = 1.57579e-09, No Iterations 2
smoothSolver:  Solving for Uz, Initial residual = 0.061668, Final residual = 6.39648e-09, No Iterations 3
GAMG:  Solving for p, Initial residual = 0.0919783, Final residual = 0.00353982, No Iterations 12
time step continuity errors : sum local = 6.88751e-09, global = -1.62756e-09, cumulative = -6.76017e-07
GAMG:  Solving for p, Initial residual = 0.00442285, Final residual = 0.000187865, No Iterations 26
time step continuity errors : sum local = 2.97613e-10, global = -9.11241e-11, cumulative = -6.76108e-07
GAMG:  Solving for p, Initial residual = 0.000197208, Final residual = 8.51697e-07, No Iterations 48
time step continuity errors : sum local = 1.2988e-12, global = -3.93525e-13, cumulative = -6.76109e-07
smoothSolver:  Solving for nuTilda, Initial residual = 7.44404e-06, Final residual = 2.77393e-08, No Iterations 1
ExecutionTime = 4186.78 s  ClockTime = 4207 s

forceCoeffs forces write:
    Cm    = 0.297352
    Cd    = 0.594718
    Cl    = 0.00180507
    Cl(f) = 0.298255
    Cl(r) = -0.29645

Time = 66.12

Courant Number mean: 0.0164372 max: 0.587974
smoothSolver:  Solving for Ux, Initial residual = 0.000133036, Final residual = 5.13197e-08, No Iterations 1
smoothSolver:  Solving for Uy, Initial residual = 0.000342201, Final residual = 1.5419e-09, No Iterations 2
smoothSolver:  Solving for Uz, Initial residual = 0.0637759, Final residual = 6.38991e-09, No Iterations 3
GAMG:  Solving for p, Initial residual = 0.120658, Final residual = 0.00581968, No Iterations 8
time step continuity errors : sum local = 8.85965e-09, global = 1.9118e-09, cumulative = -6.74197e-07
GAMG:  Solving for p, Initial residual = 0.00485366, Final residual = 0.000201552, No Iterations 24
time step continuity errors : sum local = 3.7341e-10, global = 1.09858e-10, cumulative = -6.74087e-07
GAMG:  Solving for p, Initial residual = 0.000195127, Final residual = 9.96917e-07, No Iterations 46
time step continuity errors : sum local = 1.94319e-12, global = 5.78717e-13, cumulative = -6.74086e-07
smoothSolver:  Solving for nuTilda, Initial residual = 7.44284e-06, Final residual = 2.76903e-08, No Iterations 1
ExecutionTime = 4188.62 s  ClockTime = 4208 s

forceCoeffs forces write:
    Cm    = 0.290029
    Cd    = 0.580071
    Cl    = 0.00154918
    Cl(f) = 0.290803
    Cl(r) = -0.289254

Time = 66.15

Courant Number mean: 0.0164377 max: 0.587971
smoothSolver:  Solving for Ux, Initial residual = 0.000115142, Final residual = 4.15408e-08, No Iterations 1
smoothSolver:  Solving for Uy, Initial residual = 0.000372562, Final residual = 1.58087e-09, No Iterations 2
smoothSolver:  Solving for Uz, Initial residual = 0.0649931, Final residual = 6.37858e-09, No Iterations 3
GAMG:  Solving for p, Initial residual = 0.0911779, Final residual = 0.00433746, No Iterations 6
time step continuity errors : sum local = 8.45188e-09, global = 2.68877e-09, cumulative = -6.71398e-07
GAMG:  Solving for p, Initial residual = 0.00408889, Final residual = 0.000179351, No Iterations 24
time step continuity errors : sum local = 3.73265e-10, global = 1.07334e-10, cumulative = -6.7129e-07
GAMG:  Solving for p, Initial residual = 0.000172704, Final residual = 8.76383e-07, No Iterations 46
time step continuity errors : sum local = 1.91561e-12, global = 5.70413e-13, cumulative = -6.7129e-07
smoothSolver:  Solving for nuTilda, Initial residual = 7.44133e-06, Final residual = 2.76576e-08, No Iterations 1
ExecutionTime = 4190.44 s  ClockTime = 4210 s

forceCoeffs forces write:
    Cm    = 0.285645
    Cd    = 0.571305
    Cl    = -0.00380625
    Cl(f) = 0.283742
    Cl(r) = -0.287549

Time = 66.18

Courant Number mean: 0.0164378 max: 0.587964
smoothSolver:  Solving for Ux, Initial residual = 0.000122988, Final residual = 4.09846e-08, No Iterations 1
smoothSolver:  Solving for Uy, Initial residual = 0.000385715, Final residual = 1.6138e-09, No Iterations 2
smoothSolver:  Solving for Uz, Initial residual = 0.064455, Final residual = 6.41915e-09, No Iterations 3
GAMG:  Solving for p, Initial residual = 0.0811951, Final residual = 0.00348772, No Iterations 10
time step continuity errors : sum local = 7.63905e-09, global = -1.53774e-09, cumulative = -6.72827e-07
GAMG:  Solving for p, Initial residual = 0.00459122, Final residual = 0.000203561, No Iterations 24
time step continuity errors : sum local = 3.43578e-10, global = -9.61136e-11, cumulative = -6.72923e-07
GAMG:  Solving for p, Initial residual = 0.000215592, Final residual = 8.23972e-07, No Iterations 48
time step continuity errors : sum local = 1.33136e-12, global = -3.84006e-13, cumulative = -6.72924e-07
smoothSolver:  Solving for nuTilda, Initial residual = 7.44041e-06, Final residual = 2.76131e-08, No Iterations 1
ExecutionTime = 4192.34 s  ClockTime = 4212 s

forceCoeffs forces write:
    Cm    = 0.29586
    Cd    = 0.591735
    Cl    = -0.00387665
    Cl(f) = 0.293922
    Cl(r) = -0.297799

Time = 66.21

Courant Number mean: 0.0164384 max: 0.587965
smoothSolver:  Solving for Ux, Initial residual = 0.000122955, Final residual = 4.65837e-08, No Iterations 1
smoothSolver:  Solving for Uy, Initial residual = 0.000333043, Final residual = 1.54671e-09, No Iterations 2
smoothSolver:  Solving for Uz, Initial residual = 0.0635669, Final residual = 6.41228e-09, No Iterations 3
GAMG:  Solving for p, Initial residual = 0.113494, Final residual = 0.00521696, No Iterations 8
time step continuity errors : sum local = 8.41842e-09, global = 2.2213e-09, cumulative = -6.70703e-07
GAMG:  Solving for p, Initial residual = 0.00449261, Final residual = 0.000218158, No Iterations 24
time step continuity errors : sum local = 4.14363e-10, global = 1.27939e-10, cumulative = -6.70575e-07
GAMG:  Solving for p, Initial residual = 0.000209199, Final residual = 8.23913e-07, No Iterations 48
time step continuity errors : sum local = 1.64867e-12, global = 4.92116e-13, cumulative = -6.70574e-07
smoothSolver:  Solving for nuTilda, Initial residual = 7.4393e-06, Final residual = 2.75527e-08, No Iterations 1
ExecutionTime = 4194.3 s  ClockTime = 4214 s

forceCoeffs forces write:
    Cm    = 0.288404
    Cd    = 0.576821
    Cl    = -0.00201201
    Cl(f) = 0.287398
    Cl(r) = -0.28941

Time = 66.24

Courant Number mean: 0.0164387 max: 0.587961
smoothSolver:  Solving for Ux, Initial residual = 0.000120192, Final residual = 3.9138e-08, No Iterations 1
smoothSolver:  Solving for Uy, Initial residual = 0.000386635, Final residual = 1.5792e-09, No Iterations 2
smoothSolver:  Solving for Uz, Initial residual = 0.0709385, Final residual = 6.40425e-09, No Iterations 3
GAMG:  Solving for p, Initial residual = 0.0893352, Final residual = 0.00439998, No Iterations 5
time step continuity errors : sum local = 8.82813e-09, global = -2.60439e-09, cumulative = -6.73179e-07
GAMG:  Solving for p, Initial residual = 0.00448665, Final residual = 0.000204553, No Iterations 22
time step continuity errors : sum local = 4.06216e-10, global = -1.24893e-10, cumulative = -6.73303e-07
GAMG:  Solving for p, Initial residual = 0.000208301, Final residual = 8.35881e-07, No Iterations 48
time step continuity errors : sum local = 1.62354e-12, global = -4.81952e-13, cumulative = -6.73304e-07
smoothSolver:  Solving for nuTilda, Initial residual = 7.43843e-06, Final residual = 2.75026e-08, No Iterations 1
ExecutionTime = 4196.1 s  ClockTime = 4216 s

forceCoeffs forces write:
    Cm    = 0.290553
    Cd    = 0.58112
    Cl    = -0.00108521
    Cl(f) = 0.29001
    Cl(r) = -0.291096

Time = 66.27

Courant Number mean: 0.0164391 max: 0.587957
smoothSolver:  Solving for Ux, Initial residual = 0.000113998, Final residual = 4.02412e-08, No Iterations 1
smoothSolver:  Solving for Uy, Initial residual = 0.000357956, Final residual = 1.55403e-09, No Iterations 2
smoothSolver:  Solving for Uz, Initial residual = 0.0659485, Final residual = 6.42629e-09, No Iterations 3
GAMG:  Solving for p, Initial residual = 0.092946, Final residual = 0.00409592, No Iterations 8
time step continuity errors : sum local = 7.93753e-09, global = -2.64145e-09, cumulative = -6.75945e-07
GAMG:  Solving for p, Initial residual = 0.00419221, Final residual = 0.000207363, No Iterations 25
time step continuity errors : sum local = 3.96398e-10, global = 1.56072e-10, cumulative = -6.75789e-07
GAMG:  Solving for p, Initial residual = 0.000208738, Final residual = 9.69233e-07, No Iterations 48
time step continuity errors : sum local = 1.8481e-12, global = 7.39802e-13, cumulative = -6.75789e-07
smoothSolver:  Solving for nuTilda, Initial residual = 7.4378e-06, Final residual = 2.74556e-08, No Iterations 1
ExecutionTime = 4198.17 s  ClockTime = 4218 s

forceCoeffs forces write:
    Cm    = 0.289451
    Cd    = 0.578916
    Cl    = 0.00321815
    Cl(f) = 0.29106
    Cl(r) = -0.287842

Time = 66.3

Courant Number mean: 0.0164394 max: 0.58795
smoothSolver:  Solving for Ux, Initial residual = 0.0001247, Final residual = 4.16863e-08, No Iterations 1
smoothSolver:  Solving for Uy, Initial residual = 0.000407156, Final residual = 1.62269e-09, No Iterations 2
smoothSolver:  Solving for Uz, Initial residual = 0.0691279, Final residual = 6.45685e-09, No Iterations 3
GAMG:  Solving for p, Initial residual = 0.0949402, Final residual = 0.00379095, No Iterations 10
time step continuity errors : sum local = 7.2378e-09, global = 2.37903e-09, cumulative = -6.7341e-07
GAMG:  Solving for p, Initial residual = 0.00388773, Final residual = 0.000184102, No Iterations 26
time step continuity errors : sum local = 3.46431e-10, global = 1.31532e-10, cumulative = -6.73278e-07
GAMG:  Solving for p, Initial residual = 0.000184902, Final residual = 8.50526e-07, No Iterations 48
time step continuity errors : sum local = 1.59579e-12, global = 5.87203e-13, cumulative = -6.73277e-07
smoothSolver:  Solving for nuTilda, Initial residual = 7.43722e-06, Final residual = 2.74114e-08, No Iterations 1
ExecutionTime = 4200.11 s  ClockTime = 4220 s

forceCoeffs forces write:
    Cm    = 0.291758
    Cd    = 0.58353
    Cl    = -0.00408966
    Cl(f) = 0.289713
    Cl(r) = -0.293803

Time = 66.33

Courant Number mean: 0.0164398 max: 0.587947
smoothSolver:  Solving for Ux, Initial residual = 0.000114223, Final residual = 4.052e-08, No Iterations 1
smoothSolver:  Solving for Uy, Initial residual = 0.000359342, Final residual = 1.56476e-09, No Iterations 2
smoothSolver:  Solving for Uz, Initial residual = 0.065801, Final residual = 6.45646e-09, No Iterations 3
GAMG:  Solving for p, Initial residual = 0.0961969, Final residual = 0.00433463, No Iterations 4
time step continuity errors : sum local = 8.12674e-09, global = -1.94793e-09, cumulative = -6.75225e-07
GAMG:  Solving for p, Initial residual = 0.00442874, Final residual = 0.000207324, No Iterations 24
time step continuity errors : sum local = 3.84721e-10, global = -1.29348e-10, cumulative = -6.75355e-07
GAMG:  Solving for p, Initial residual = 0.000209327, Final residual = 9.93639e-07, No Iterations 48
time step continuity errors : sum local = 1.81901e-12, global = -5.78786e-13, cumulative = -6.75355e-07
smoothSolver:  Solving for nuTilda, Initial residual = 7.43658e-06, Final residual = 2.73683e-08, No Iterations 1
ExecutionTime = 4201.92 s  ClockTime = 4222 s

forceCoeffs forces write:
    Cm    = 0.291966
    Cd    = 0.583945
    Cl    = 0.000274486
    Cl(f) = 0.292103
    Cl(r) = -0.291828

Time = 66.36

Courant Number mean: 0.0164403 max: 0.587944
smoothSolver:  Solving for Ux, Initial residual = 0.000116379, Final residual = 4.21789e-08, No Iterations 1
smoothSolver:  Solving for Uy, Initial residual = 0.000361939, Final residual = 1.55524e-09, No Iterations 2
smoothSolver:  Solving for Uz, Initial residual = 0.0655994, Final residual = 6.47574e-09, No Iterations 3
GAMG:  Solving for p, Initial residual = 0.0982718, Final residual = 0.00387079, No Iterations 10
time step continuity errors : sum local = 7.07912e-09, global = -1.9929e-09, cumulative = -6.77348e-07
GAMG:  Solving for p, Initial residual = 0.00445928, Final residual = 0.00021179, No Iterations 24
time step continuity errors : sum local = 3.41021e-10, global = -1.25204e-10, cumulative = -6.77473e-07
GAMG:  Solving for p, Initial residual = 0.000218466, Final residual = 9.03811e-07, No Iterations 48
time step continuity errors : sum local = 1.41332e-12, global = -5.42118e-13, cumulative = -6.77474e-07
smoothSolver:  Solving for nuTilda, Initial residual = 7.4366e-06, Final residual = 2.73256e-08, No Iterations 1
ExecutionTime = 4203.91 s  ClockTime = 4224 s

forceCoeffs forces write:
    Cm    = 0.296653
    Cd    = 0.593319
    Cl    = -0.00470766
    Cl(f) = 0.294299
    Cl(r) = -0.299006

Time = 66.39

Courant Number mean: 0.016441 max: 0.587947
smoothSolver:  Solving for Ux, Initial residual = 0.000132615, Final residual = 4.99559e-08, No Iterations 1
smoothSolver:  Solving for Uy, Initial residual = 0.000341226, Final residual = 1.55003e-09, No Iterations 2
smoothSolver:  Solving for Uz, Initial residual = 0.064652, Final residual = 6.4627e-09, No Iterations 3
GAMG:  Solving for p, Initial residual = 0.116779, Final residual = 0.00565094, No Iterations 8
time step continuity errors : sum local = 8.82801e-09, global = 2.58841e-09, cumulative = -6.74885e-07
GAMG:  Solving for p, Initial residual = 0.00494953, Final residual = 0.000225764, No Iterations 24
time step continuity errors : sum local = 4.0613e-10, global = 1.47063e-10, cumulative = -6.74738e-07
GAMG:  Solving for p, Initial residual = 0.00021951, Final residual = 8.68194e-07, No Iterations 48
time step continuity errors : sum local = 1.61444e-12, global = 6.29231e-13, cumulative = -6.74738e-07
smoothSolver:  Solving for nuTilda, Initial residual = 7.43691e-06, Final residual = 2.7295e-08, No Iterations 1
ExecutionTime = 4205.8 s  ClockTime = 4226 s

forceCoeffs forces write:
    Cm    = 0.291548
    Cd    = 0.583109
    Cl    = 0.00334319
    Cl(f) = 0.293219
    Cl(r) = -0.289876

Time = 66.42

Courant Number mean: 0.0164415 max: 0.587945
smoothSolver:  Solving for Ux, Initial residual = 0.000116008, Final residual = 4.22121e-08, No Iterations 1
smoothSolver:  Solving for Uy, Initial residual = 0.000373147, Final residual = 1.58494e-09, No Iterations 2
smoothSolver:  Solving for Uz, Initial residual = 0.0673162, Final residual = 6.46939e-09, No Iterations 3
GAMG:  Solving for p, Initial residual = 0.0967061, Final residual = 0.00470019, No Iterations 5
time step continuity errors : sum local = 8.7343e-09, global = -4.52758e-10, cumulative = -6.75191e-07
GAMG:  Solving for p, Initial residual = 0.00475057, Final residual = 0.0002044, No Iterations 19
time step continuity errors : sum local = 3.80121e-10, global = 1.28461e-10, cumulative = -6.75062e-07
GAMG:  Solving for p, Initial residual = 0.000203816, Final residual = 8.1771e-07, No Iterations 48
time step continuity errors : sum local = 1.53217e-12, global = 4.50857e-13, cumulative = -6.75062e-07
smoothSolver:  Solving for nuTilda, Initial residual = 7.43718e-06, Final residual = 2.72489e-08, No Iterations 1
ExecutionTime = 4207.56 s  ClockTime = 4227 s

forceCoeffs forces write:
    Cm    = 0.290543
    Cd    = 0.581101
    Cl    = -0.00267519
    Cl(f) = 0.289206
    Cl(r) = -0.291881

Time = 66.45

Courant Number mean: 0.0164419 max: 0.587942
smoothSolver:  Solving for Ux, Initial residual = 0.000115221, Final residual = 4.00079e-08, No Iterations 1
smoothSolver:  Solving for Uy, Initial residual = 0.000360582, Final residual = 1.56014e-09, No Iterations 2
smoothSolver:  Solving for Uz, Initial residual = 0.0620618, Final residual = 6.49081e-09, No Iterations 3
GAMG:  Solving for p, Initial residual = 0.0941666, Final residual = 0.00419747, No Iterations 4
time step continuity errors : sum local = 7.88671e-09, global = 1.70101e-09, cumulative = -6.73361e-07
GAMG:  Solving for p, Initial residual = 0.00413162, Final residual = 0.000182211, No Iterations 22
time step continuity errors : sum local = 3.51974e-10, global = 1.19157e-10, cumulative = -6.73241e-07
GAMG:  Solving for p, Initial residual = 0.000179711, Final residual = 9.99614e-07, No Iterations 46
time step continuity errors : sum local = 1.95854e-12, global = 6.0361e-13, cumulative = -6.73241e-07
smoothSolver:  Solving for nuTilda, Initial residual = 7.43684e-06, Final residual = 2.71885e-08, No Iterations 1
ExecutionTime = 4209.3 s  ClockTime = 4229 s

forceCoeffs forces write:
    Cm    = 0.288896
    Cd    = 0.577807
    Cl    = -0.00195984
    Cl(f) = 0.287916
    Cl(r) = -0.289876

Time = 66.48

Courant Number mean: 0.0164422 max: 0.587936
smoothSolver:  Solving for Ux, Initial residual = 0.000117011, Final residual = 4.00353e-08, No Iterations 1
smoothSolver:  Solving for Uy, Initial residual = 0.000374707, Final residual = 1.57428e-09, No Iterations 2
smoothSolver:  Solving for Uz, Initial residual = 0.0648539, Final residual = 6.48733e-09, No Iterations 3
GAMG:  Solving for p, Initial residual = 0.0930432, Final residual = 0.00375465, No Iterations 6
time step continuity errors : sum local = 7.3721e-09, global = -2.53401e-09, cumulative = -6.75775e-07
GAMG:  Solving for p, Initial residual = 0.00417742, Final residual = 0.000172567, No Iterations 26
time step continuity errors : sum local = 3.09716e-10, global = -1.06483e-10, cumulative = -6.75881e-07
GAMG:  Solving for p, Initial residual = 0.00018056, Final residual = 9.63922e-07, No Iterations 46
time step continuity errors : sum local = 1.66292e-12, global = -5.405e-13, cumulative = -6.75882e-07
smoothSolver:  Solving for nuTilda, Initial residual = 7.437e-06, Final residual = 2.71344e-08, No Iterations 1
ExecutionTime = 4211.14 s  ClockTime = 4231 s

forceCoeffs forces write:
    Cm    = 0.293984
    Cd    = 0.587981
    Cl    = -0.00259762
    Cl(f) = 0.292685
    Cl(r) = -0.295282

Time = 66.51

Courant Number mean: 0.0164428 max: 0.587934
smoothSolver:  Solving for Ux, Initial residual = 0.000119417, Final residual = 4.51288e-08, No Iterations 1
smoothSolver:  Solving for Uy, Initial residual = 0.000344064, Final residual = 1.53562e-09, No Iterations 2
smoothSolver:  Solving for Uz, Initial residual = 0.0682062, Final residual = 6.50725e-09, No Iterations 3
GAMG:  Solving for p, Initial residual = 0.105525, Final residual = 0.00454839, No Iterations 4
time step continuity errors : sum local = 7.81565e-09, global = -1.71083e-09, cumulative = -6.77593e-07
GAMG:  Solving for p, Initial residual = 0.00468524, Final residual = 0.000197603, No Iterations 24
time step continuity errors : sum local = 3.3313e-10, global = -1.12805e-10, cumulative = -6.77706e-07
