/*---------------------------------------------------------------------------*\
| =========                 |                                                 |
| \\      /  F ield         | OpenFOAM: The Open Source CFD Toolbox           |
|  \\    /   O peration     | Version:  4.1                                   |
|   \\  /    A nd           | Web:      www.OpenFOAM.org                      |
|    \\/     M anipulation  |                                                 |
\*---------------------------------------------------------------------------*/
Build  : 4.1
Exec   : pisoFoam -parallel
Date   : Jul 05 2018
Time   : 13:36:26
Host   : "cp1603"
PID    : 32114
Case   : /scratch/superran/lengthEffect/workingFolder/case_z_60Layer
nProcs : 24
Slaves : 
23
(
"cp1603.32115"
"cp1603.32116"
"cp1603.32117"
"cp1603.32118"
"cp1603.32120"
"cp1603.32121"
"cp1603.32122"
"cp1603.32123"
"cp1603.32124"
"cp1603.32125"
"cp1603.32126"
"cp1603.32129"
"cp1603.32139"
"cp1603.32157"
"cp1603.32173"
"cp1603.32180"
"cp1603.32188"
"cp1603.32216"
"cp1603.32259"
"cp1603.32300"
"cp1603.32377"
"cp1603.32385"
"cp1603.32409"
)

Pstream initialized with:
    floatTransfer      : 0
    nProcsSimpleSum    : 0
    commsType          : nonBlocking
    polling iterations : 0
sigFpe : Enabling floating point exception trapping (FOAM_SIGFPE).
fileModificationChecking : Monitoring run-time modified files using timeStampMaster
allowSystemOperations : Allowing user-supplied system call operations

// * * * * * * * * * * * * * * * * * * * * * * * * * * * * * * * * * * * * * //
Create time

Create mesh for time = 0


PISO: Operating solver in PISO mode

Reading field p

Reading field U

Reading/calculating face flux field phi

Selecting incompressible transport model Newtonian
Selecting turbulence model type LES
Selecting LES turbulence model SpalartAllmarasDDES
Selecting LES delta type cubeRootVol
Selecting patchDistMethod meshWave
SpalartAllmarasDESCoeffs
{
    Ce              1.048;
    sigmaNut        0.66666;
    kappa           0.41;
    Cb1             0.1355;
    Cb2             0.622;
    Cw2             0.3;
    Cw3             2;
    Cv1             7.1;
    Cs              0.3;
    CDES            0.65;
    ck              0.07;
}

No MRF models present

No finite volume options present


Starting time loop

forces forces:
    Not including porosity effects
forceCoeffs forces:
    Not including porosity effects
Time = 0.03

Courant Number mean: 0.000100376 max: 0.00377224
smoothSolver:  Solving for Ux, Initial residual = 1, Final residual = 1.3541e-10, No Iterations 2
smoothSolver:  Solving for Uy, Initial residual = 1, Final residual = 1.28758e-10, No Iterations 2
smoothSolver:  Solving for Uz, Initial residual = 1, Final residual = 1.37589e-10, No Iterations 2
GAMG:  Solving for p, Initial residual = 1, Final residual = 0.0439101, No Iterations 38
time step continuity errors : sum local = 8.81504e-06, global = -2.40467e-06, cumulative = -2.40467e-06
GAMG:  Solving for p, Initial residual = 0.000567038, Final residual = 2.44656e-05, No Iterations 32
time step continuity errors : sum local = 3.78496e-07, global = -1.05862e-07, cumulative = -2.51053e-06
GAMG:  Solving for p, Initial residual = 2.41885e-05, Final residual = 9.18781e-07, No Iterations 34
time step continuity errors : sum local = 1.42798e-08, global = -4.02906e-09, cumulative = -2.51456e-06
smoothSolver:  Solving for nuTilda, Initial residual = 1, Final residual = 2.25366e-08, No Iterations 8
bounding nuTilda, min: -9.00117e-17 max: 8.77811e-07 average: 2.78197e-10
ExecutionTime = 5.41 s  ClockTime = 6 s

forceCoeffs forces write:
    Cm    = 189.177
    Cd    = 378.354
    Cl    = -0.00153348
    Cl(f) = 189.176
    Cl(r) = -189.178

Time = 0.06

Courant Number mean: 0.0134334 max: 0.356719
smoothSolver:  Solving for Ux, Initial residual = 0.733297, Final residual = 3.99577e-08, No Iterations 3
smoothSolver:  Solving for Uy, Initial residual = 0.333022, Final residual = 9.24241e-09, No Iterations 3
smoothSolver:  Solving for Uz, Initial residual = 0.333082, Final residual = 5.80047e-09, No Iterations 3
GAMG:  Solving for p, Initial residual = 0.0203401, Final residual = 0.000853265, No Iterations 38
time step continuity errors : sum local = 8.77234e-06, global = 2.40108e-06, cumulative = -1.13484e-07
GAMG:  Solving for p, Initial residual = 0.00182712, Final residual = 8.99032e-05, No Iterations 28
time step continuity errors : sum local = 4.58803e-07, global = 1.31486e-07, cumulative = 1.80024e-08
GAMG:  Solving for p, Initial residual = 9.21512e-05, Final residual = 8.82742e-07, No Iterations 48
time step continuity errors : sum local = 4.53885e-09, global = 1.29622e-09, cumulative = 1.92986e-08
smoothSolver:  Solving for nuTilda, Initial residual = 0.000625293, Final residual = 6.86618e-08, No Iterations 2
bounding nuTilda, min: -1.90647e-27 max: 8.1109e-07 average: 5.35972e-10
ExecutionTime = 9.6 s  ClockTime = 10 s

forceCoeffs forces write:
    Cm    = -93.9214
    Cd    = -187.843
    Cl    = 0.00571233
    Cl(f) = -93.9185
    Cl(r) = 93.9242

Time = 0.09

Courant Number mean: 0.013452 max: 0.356964
smoothSolver:  Solving for Ux, Initial residual = 0.472875, Final residual = 2.61246e-08, No Iterations 3
smoothSolver:  Solving for Uy, Initial residual = 0.207797, Final residual = 5.62222e-09, No Iterations 3
smoothSolver:  Solving for Uz, Initial residual = 0.391826, Final residual = 6.52323e-09, No Iterations 3
GAMG:  Solving for p, Initial residual = 0.0142842, Final residual = 0.000698927, No Iterations 36
time step continuity errors : sum local = 3.55856e-06, global = -9.6316e-07, cumulative = -9.43861e-07
GAMG:  Solving for p, Initial residual = 0.094176, Final residual = 0.00404845, No Iterations 30
time step continuity errors : sum local = 1.58833e-07, global = -4.54487e-08, cumulative = -9.8931e-07
GAMG:  Solving for p, Initial residual = 0.00303472, Final residual = 9.6367e-07, No Iterations 84
time step continuity errors : sum local = 5.17814e-11, global = -1.48453e-11, cumulative = -9.89325e-07
smoothSolver:  Solving for nuTilda, Initial residual = 0.000301458, Final residual = 3.71267e-08, No Iterations 2
bounding nuTilda, min: -1.52232e-38 max: 7.49498e-07 average: 7.75293e-10
ExecutionTime = 15.09 s  ClockTime = 16 s

forceCoeffs forces write:
    Cm    = 0.398164
    Cd    = 0.796241
    Cl    = -0.00266389
    Cl(f) = 0.396832
    Cl(r) = -0.399496

Time = 0.12

Courant Number mean: 0.0134673 max: 0.356751
smoothSolver:  Solving for Ux, Initial residual = 0.00525335, Final residual = 4.80564e-09, No Iterations 2
smoothSolver:  Solving for Uy, Initial residual = 0.00429501, Final residual = 2.45873e-09, No Iterations 2
smoothSolver:  Solving for Uz, Initial residual = 0.357333, Final residual = 2.36588e-09, No Iterations 3
GAMG:  Solving for p, Initial residual = 0.102023, Final residual = 0.00425408, No Iterations 8
time step continuity errors : sum local = 2.13857e-07, global = 3.95699e-08, cumulative = -9.49755e-07
GAMG:  Solving for p, Initial residual = 0.00522967, Final residual = 0.000251088, No Iterations 20
time step continuity errors : sum local = 1.03316e-08, global = 2.50666e-09, cumulative = -9.47248e-07
GAMG:  Solving for p, Initial residual = 0.000257959, Final residual = 8.45532e-07, No Iterations 54
time step continuity errors : sum local = 3.37577e-11, global = 9.30349e-12, cumulative = -9.47239e-07
smoothSolver:  Solving for nuTilda, Initial residual = 0.000199099, Final residual = 2.70879e-08, No Iterations 2
ExecutionTime = 18.46 s  ClockTime = 19 s

forceCoeffs forces write:
    Cm    = 0.316101
    Cd    = 0.632223
    Cl    = -9.96348e-05
    Cl(f) = 0.316051
    Cl(r) = -0.31615

Time = 0.15

Courant Number mean: 0.0134792 max: 0.356215
smoothSolver:  Solving for Ux, Initial residual = 0.0038188, Final residual = 3.69061e-09, No Iterations 2
smoothSolver:  Solving for Uy, Initial residual = 0.00307588, Final residual = 1.81351e-09, No Iterations 2
smoothSolver:  Solving for Uz, Initial residual = 0.333464, Final residual = 8.10733e-08, No Iterations 2
GAMG:  Solving for p, Initial residual = 0.0832863, Final residual = 0.00329418, No Iterations 8
time step continuity errors : sum local = 1.22539e-07, global = 2.36061e-08, cumulative = -9.23633e-07
GAMG:  Solving for p, Initial residual = 0.003836, Final residual = 0.000161614, No Iterations 22
time step continuity errors : sum local = 5.19534e-09, global = 1.27304e-09, cumulative = -9.2236e-07
GAMG:  Solving for p, Initial residual = 0.000164899, Final residual = 9.82842e-07, No Iterations 50
time step continuity errors : sum local = 3.08836e-11, global = 8.59762e-12, cumulative = -9.22351e-07
smoothSolver:  Solving for nuTilda, Initial residual = 0.000151885, Final residual = 2.28792e-08, No Iterations 2
ExecutionTime = 21.56 s  ClockTime = 22 s

forceCoeffs forces write:
    Cm    = 0.267252
    Cd    = 0.534499
    Cl    = -0.002125
    Cl(f) = 0.266189
    Cl(r) = -0.268314

Time = 0.18

Courant Number mean: 0.0134884 max: 0.355288
smoothSolver:  Solving for Ux, Initial residual = 0.00290465, Final residual = 2.95359e-09, No Iterations 2
smoothSolver:  Solving for Uy, Initial residual = 0.00234216, Final residual = 1.42747e-09, No Iterations 2
smoothSolver:  Solving for Uz, Initial residual = 0.307746, Final residual = 7.82378e-08, No Iterations 2
GAMG:  Solving for p, Initial residual = 0.067071, Final residual = 0.00277431, No Iterations 8
time step continuity errors : sum local = 8.24361e-08, global = 1.56316e-08, cumulative = -9.0672e-07
GAMG:  Solving for p, Initial residual = 0.00314381, Final residual = 0.000143663, No Iterations 22
time step continuity errors : sum local = 3.79917e-09, global = 9.39393e-10, cumulative = -9.0578e-07
GAMG:  Solving for p, Initial residual = 0.000146067, Final residual = 8.73193e-07, No Iterations 50
time step continuity errors : sum local = 2.26469e-11, global = 6.29101e-12, cumulative = -9.05774e-07
smoothSolver:  Solving for nuTilda, Initial residual = 0.000126201, Final residual = 2.04648e-08, No Iterations 2
ExecutionTime = 24.73 s  ClockTime = 25 s

forceCoeffs forces write:
    Cm    = 0.228903
    Cd    = 0.457803
    Cl    = 0.000113379
    Cl(f) = 0.22896
    Cl(r) = -0.228847

Time = 0.21

Courant Number mean: 0.0134956 max: 0.355146
smoothSolver:  Solving for Ux, Initial residual = 0.00230001, Final residual = 2.39614e-09, No Iterations 2
smoothSolver:  Solving for Uy, Initial residual = 0.00190038, Final residual = 1.18886e-09, No Iterations 2
smoothSolver:  Solving for Uz, Initial residual = 0.296613, Final residual = 8.48862e-08, No Iterations 2
GAMG:  Solving for p, Initial residual = 0.0542929, Final residual = 0.00250896, No Iterations 7
time step continuity errors : sum local = 6.22278e-08, global = -1.57197e-08, cumulative = -9.21494e-07
GAMG:  Solving for p, Initial residual = 0.00271494, Final residual = 0.000115335, No Iterations 19
time step continuity errors : sum local = 2.66852e-09, global = 6.89546e-10, cumulative = -9.20804e-07
GAMG:  Solving for p, Initial residual = 0.000116319, Final residual = 8.38367e-07, No Iterations 48
time step continuity errors : sum local = 1.93387e-11, global = 5.48604e-12, cumulative = -9.20799e-07
smoothSolver:  Solving for nuTilda, Initial residual = 0.000110793, Final residual = 4.03077e-08, No Iterations 2
ExecutionTime = 27.68 s  ClockTime = 28 s

forceCoeffs forces write:
    Cm    = 0.216114
    Cd    = 0.432227
    Cl    = -0.00393007
    Cl(f) = 0.214149
    Cl(r) = -0.218079

Time = 0.24

Courant Number mean: 0.0135019 max: 0.355419
smoothSolver:  Solving for Ux, Initial residual = 0.00196888, Final residual = 2.19191e-09, No Iterations 2
smoothSolver:  Solving for Uy, Initial residual = 0.00162874, Final residual = 1.05731e-09, No Iterations 2
smoothSolver:  Solving for Uz, Initial residual = 0.281983, Final residual = 8.49259e-08, No Iterations 2
GAMG:  Solving for p, Initial residual = 0.0440727, Final residual = 0.00174332, No Iterations 8
time step continuity errors : sum local = 3.87622e-08, global = 7.6636e-09, cumulative = -9.13135e-07
GAMG:  Solving for p, Initial residual = 0.00189105, Final residual = 8.10417e-05, No Iterations 22
time step continuity errors : sum local = 1.67934e-09, global = 4.27759e-10, cumulative = -9.12707e-07
GAMG:  Solving for p, Initial residual = 8.17085e-05, Final residual = 8.85325e-07, No Iterations 42
time step continuity errors : sum local = 1.81647e-11, global = 4.85466e-12, cumulative = -9.12702e-07
smoothSolver:  Solving for nuTilda, Initial residual = 0.000101084, Final residual = 3.628e-08, No Iterations 2
ExecutionTime = 30.53 s  ClockTime = 31 s

forceCoeffs forces write:
    Cm    = 0.197246
    Cd    = 0.394491
    Cl    = 0.00190998
    Cl(f) = 0.198201
    Cl(r) = -0.196291

Time = 0.27

Courant Number mean: 0.0135075 max: 0.355647
smoothSolver:  Solving for Ux, Initial residual = 0.00170917, Final residual = 1.95524e-09, No Iterations 2
smoothSolver:  Solving for Uy, Initial residual = 0.00142846, Final residual = 9.41601e-10, No Iterations 2
smoothSolver:  Solving for Uz, Initial residual = 0.28586, Final residual = 9.08418e-08, No Iterations 2
GAMG:  Solving for p, Initial residual = 0.0377425, Final residual = 0.0016815, No Iterations 6
time step continuity errors : sum local = 3.34229e-08, global = 7.55586e-09, cumulative = -9.05147e-07
GAMG:  Solving for p, Initial residual = 0.00177109, Final residual = 8.02776e-05, No Iterations 20
time step continuity errors : sum local = 1.5288e-09, global = 4.33577e-10, cumulative = -9.04713e-07
GAMG:  Solving for p, Initial residual = 8.06609e-05, Final residual = 9.77724e-07, No Iterations 44
time step continuity errors : sum local = 1.85558e-11, global = 5.17404e-12, cumulative = -9.04708e-07
smoothSolver:  Solving for nuTilda, Initial residual = 9.47859e-05, Final residual = 3.54784e-08, No Iterations 2
ExecutionTime = 33.63 s  ClockTime = 34 s

forceCoeffs forces write:
    Cm    = 0.188213
    Cd    = 0.376426
    Cl    = 0.0026204
    Cl(f) = 0.189523
    Cl(r) = -0.186903

Time = 0.3

Courant Number mean: 0.0135127 max: 0.355846
smoothSolver:  Solving for Ux, Initial residual = 0.00154468, Final residual = 1.84079e-09, No Iterations 2
smoothSolver:  Solving for Uy, Initial residual = 0.00131529, Final residual = 8.91375e-10, No Iterations 2
smoothSolver:  Solving for Uz, Initial residual = 0.26528, Final residual = 7.88883e-08, No Iterations 2
GAMG:  Solving for p, Initial residual = 0.0328551, Final residual = 0.00114615, No Iterations 8
time step continuity errors : sum local = 2.11708e-08, global = 4.70533e-09, cumulative = -9.00002e-07
GAMG:  Solving for p, Initial residual = 0.00122437, Final residual = 5.99843e-05, No Iterations 23
time step continuity errors : sum local = 1.06002e-09, global = -3.98899e-10, cumulative = -9.00401e-07
GAMG:  Solving for p, Initial residual = 6.00936e-05, Final residual = 9.35535e-07, No Iterations 41
time step continuity errors : sum local = 1.64627e-11, global = 5.00114e-12, cumulative = -9.00396e-07
smoothSolver:  Solving for nuTilda, Initial residual = 9.0695e-05, Final residual = 1.84801e-08, No Iterations 2
ExecutionTime = 36.49 s  ClockTime = 37 s

forceCoeffs forces write:
    Cm    = 0.178941
    Cd    = 0.357882
    Cl    = -0.00185308
    Cl(f) = 0.178015
    Cl(r) = -0.179868

Time = 0.33

Courant Number mean: 0.0135177 max: 0.356012
smoothSolver:  Solving for Ux, Initial residual = 0.00142264, Final residual = 1.74549e-09, No Iterations 2
smoothSolver:  Solving for Uy, Initial residual = 0.00119887, Final residual = 8.22888e-10, No Iterations 2
smoothSolver:  Solving for Uz, Initial residual = 0.265137, Final residual = 7.3525e-08, No Iterations 2
GAMG:  Solving for p, Initial residual = 0.0302914, Final residual = 0.00138095, No Iterations 6
time step continuity errors : sum local = 2.37246e-08, global = 5.67135e-09, cumulative = -8.94725e-07
GAMG:  Solving for p, Initial residual = 0.00145511, Final residual = 7.1638e-05, No Iterations 24
time step continuity errors : sum local = 1.18414e-09, global = 3.4818e-10, cumulative = -8.94377e-07
GAMG:  Solving for p, Initial residual = 7.21002e-05, Final residual = 9.99909e-07, No Iterations 42
time step continuity errors : sum local = 1.63886e-11, global = 4.6419e-12, cumulative = -8.94372e-07
smoothSolver:  Solving for nuTilda, Initial residual = 8.8045e-05, Final residual = 1.82962e-08, No Iterations 2
ExecutionTime = 39.34 s  ClockTime = 40 s

forceCoeffs forces write:
    Cm    = 0.167647
    Cd    = 0.335294
    Cl    = 0.00321233
    Cl(f) = 0.169253
    Cl(r) = -0.166041

Time = 0.36

Courant Number mean: 0.0135223 max: 0.356137
smoothSolver:  Solving for Ux, Initial residual = 0.00130776, Final residual = 1.62404e-09, No Iterations 2
smoothSolver:  Solving for Uy, Initial residual = 0.00113264, Final residual = 7.89518e-10, No Iterations 2
smoothSolver:  Solving for Uz, Initial residual = 0.267423, Final residual = 6.70856e-08, No Iterations 2
GAMG:  Solving for p, Initial residual = 0.0287399, Final residual = 0.00111816, No Iterations 6
time step continuity errors : sum local = 1.79173e-08, global = 4.36902e-09, cumulative = -8.90003e-07
GAMG:  Solving for p, Initial residual = 0.00117492, Final residual = 5.26832e-05, No Iterations 26
time step continuity errors : sum local = 8.19372e-10, global = 2.61819e-10, cumulative = -8.89741e-07
GAMG:  Solving for p, Initial residual = 5.28684e-05, Final residual = 9.17624e-07, No Iterations 44
time step continuity errors : sum local = 1.42335e-11, global = 4.45302e-12, cumulative = -8.89737e-07
smoothSolver:  Solving for nuTilda, Initial residual = 8.58676e-05, Final residual = 3.17269e-08, No Iterations 2
ExecutionTime = 42.28 s  ClockTime = 43 s

forceCoeffs forces write:
    Cm    = 0.16158
    Cd    = 0.323159
    Cl    = -0.00168123
    Cl(f) = 0.160739
    Cl(r) = -0.16242

Time = 0.39

Courant Number mean: 0.0135267 max: 0.356223
smoothSolver:  Solving for Ux, Initial residual = 0.00123588, Final residual = 1.56798e-09, No Iterations 2
smoothSolver:  Solving for Uy, Initial residual = 0.00107151, Final residual = 7.56758e-10, No Iterations 2
smoothSolver:  Solving for Uz, Initial residual = 0.254684, Final residual = 8.20038e-08, No Iterations 2
GAMG:  Solving for p, Initial residual = 0.0275801, Final residual = 0.00127211, No Iterations 5
time step continuity errors : sum local = 1.93359e-08, global = -4.81701e-09, cumulative = -8.94554e-07
GAMG:  Solving for p, Initial residual = 0.00132109, Final residual = 5.94894e-05, No Iterations 26
time step continuity errors : sum local = 8.82926e-10, global = -2.68232e-10, cumulative = -8.94822e-07
GAMG:  Solving for p, Initial residual = 5.91908e-05, Final residual = 8.37922e-07, No Iterations 46
time step continuity errors : sum local = 1.2488e-11, global = -3.70654e-12, cumulative = -8.94826e-07
smoothSolver:  Solving for nuTilda, Initial residual = 8.35283e-05, Final residual = 2.11907e-08, No Iterations 2
ExecutionTime = 45.3 s  ClockTime = 46 s

forceCoeffs forces write:
    Cm    = 0.159603
    Cd    = 0.319206
    Cl    = 0.00212506
    Cl(f) = 0.160666
    Cl(r) = -0.158541

Time = 0.42

Courant Number mean: 0.0135311 max: 0.356279
smoothSolver:  Solving for Ux, Initial residual = 0.001192, Final residual = 1.5709e-09, No Iterations 2
smoothSolver:  Solving for Uy, Initial residual = 0.00101664, Final residual = 7.27162e-10, No Iterations 2
smoothSolver:  Solving for Uz, Initial residual = 0.255898, Final residual = 8.60755e-08, No Iterations 2
GAMG:  Solving for p, Initial residual = 0.0271794, Final residual = 0.00116955, No Iterations 6
time step continuity errors : sum local = 1.71135e-08, global = 3.5139e-09, cumulative = -8.91312e-07
GAMG:  Solving for p, Initial residual = 0.00122975, Final residual = 5.40549e-05, No Iterations 26
time step continuity errors : sum local = 7.63554e-10, global = 2.08526e-10, cumulative = -8.91103e-07
GAMG:  Solving for p, Initial residual = 5.45338e-05, Final residual = 9.99687e-07, No Iterations 42
time step continuity errors : sum local = 1.39748e-11, global = 4.02734e-12, cumulative = -8.91099e-07
smoothSolver:  Solving for nuTilda, Initial residual = 8.09529e-05, Final residual = 1.98757e-08, No Iterations 2
ExecutionTime = 48.41 s  ClockTime = 49 s

forceCoeffs forces write:
    Cm    = 0.14908
    Cd    = 0.298159
    Cl    = -0.00197138
    Cl(f) = 0.148094
    Cl(r) = -0.150065

Time = 0.45

Courant Number mean: 0.0135353 max: 0.356296
smoothSolver:  Solving for Ux, Initial residual = 0.00111931, Final residual = 1.46442e-09, No Iterations 2
smoothSolver:  Solving for Uy, Initial residual = 0.000970687, Final residual = 6.97791e-10, No Iterations 2
smoothSolver:  Solving for Uz, Initial residual = 0.253308, Final residual = 8.20803e-08, No Iterations 2
GAMG:  Solving for p, Initial residual = 0.0269882, Final residual = 0.000940246, No Iterations 5
time step continuity errors : sum local = 1.29321e-08, global = -2.87008e-09, cumulative = -8.93969e-07
GAMG:  Solving for p, Initial residual = 0.000977783, Final residual = 4.86088e-05, No Iterations 18
time step continuity errors : sum local = 6.55959e-10, global = -1.54979e-10, cumulative = -8.94124e-07
GAMG:  Solving for p, Initial residual = 4.87757e-05, Final residual = 9.06059e-07, No Iterations 38
time step continuity errors : sum local = 1.22609e-11, global = -3.43786e-12, cumulative = -8.94128e-07
smoothSolver:  Solving for nuTilda, Initial residual = 7.82527e-05, Final residual = 1.93298e-08, No Iterations 2
ExecutionTime = 50.96 s  ClockTime = 52 s

forceCoeffs forces write:
    Cm    = 0.146534
    Cd    = 0.293067
    Cl    = 0.000143793
    Cl(f) = 0.146606
    Cl(r) = -0.146462

Time = 0.48

Courant Number mean: 0.0135394 max: 0.356282
smoothSolver:  Solving for Ux, Initial residual = 0.00108451, Final residual = 1.4517e-09, No Iterations 2
smoothSolver:  Solving for Uy, Initial residual = 0.000937598, Final residual = 6.78767e-10, No Iterations 2
smoothSolver:  Solving for Uz, Initial residual = 0.273475, Final residual = 7.97422e-08, No Iterations 2
GAMG:  Solving for p, Initial residual = 0.026828, Final residual = 0.000932107, No Iterations 5
time step continuity errors : sum local = 1.24317e-08, global = -2.99778e-09, cumulative = -8.97126e-07
GAMG:  Solving for p, Initial residual = 0.000963533, Final residual = 4.25984e-05, No Iterations 19
time step continuity errors : sum local = 5.59809e-10, global = 1.91285e-10, cumulative = -8.96934e-07
GAMG:  Solving for p, Initial residual = 4.30696e-05, Final residual = 9.2145e-07, No Iterations 34
time step continuity errors : sum local = 1.2139e-11, global = 3.85028e-12, cumulative = -8.96931e-07
smoothSolver:  Solving for nuTilda, Initial residual = 7.56138e-05, Final residual = 1.89478e-08, No Iterations 2
ExecutionTime = 53.54 s  ClockTime = 54 s

forceCoeffs forces write:
    Cm    = 0.143885
    Cd    = 0.28777
    Cl    = -0.00037712
    Cl(f) = 0.143696
    Cl(r) = -0.144073

Time = 0.51

Courant Number mean: 0.0135435 max: 0.356232
smoothSolver:  Solving for Ux, Initial residual = 0.00106845, Final residual = 1.43939e-09, No Iterations 2
smoothSolver:  Solving for Uy, Initial residual = 0.0009226, Final residual = 6.7539e-10, No Iterations 2
smoothSolver:  Solving for Uz, Initial residual = 0.261372, Final residual = 6.52157e-08, No Iterations 2
GAMG:  Solving for p, Initial residual = 0.026214, Final residual = 0.00114996, No Iterations 6
time step continuity errors : sum local = 1.49317e-08, global = 3.28453e-09, cumulative = -8.93646e-07
GAMG:  Solving for p, Initial residual = 0.00119996, Final residual = 5.9364e-05, No Iterations 22
time step continuity errors : sum local = 7.49231e-10, global = 2.33723e-10, cumulative = -8.93412e-07
GAMG:  Solving for p, Initial residual = 5.96677e-05, Final residual = 9.21332e-07, No Iterations 41
time step continuity errors : sum local = 1.155e-11, global = -4.3773e-12, cumulative = -8.93417e-07
smoothSolver:  Solving for nuTilda, Initial residual = 7.31339e-05, Final residual = 1.88842e-08, No Iterations 2
ExecutionTime = 56.31 s  ClockTime = 57 s

forceCoeffs forces write:
    Cm    = 0.137063
    Cd    = 0.274124
    Cl    = 0.00207363
    Cl(f) = 0.138099
    Cl(r) = -0.136026

Time = 0.54

Courant Number mean: 0.0135474 max: 0.356142
smoothSolver:  Solving for Ux, Initial residual = 0.00103495, Final residual = 1.3826e-09, No Iterations 2
smoothSolver:  Solving for Uy, Initial residual = 0.000884029, Final residual = 6.45883e-10, No Iterations 2
smoothSolver:  Solving for Uz, Initial residual = 0.254232, Final residual = 5.91116e-08, No Iterations 2
GAMG:  Solving for p, Initial residual = 0.0262354, Final residual = 0.000995547, No Iterations 7
time step continuity errors : sum local = 1.23182e-08, global = -1.69288e-09, cumulative = -8.9511e-07
GAMG:  Solving for p, Initial residual = 0.00101235, Final residual = 4.19954e-05, No Iterations 24
time step continuity errors : sum local = 5.22243e-10, global = -1.34396e-10, cumulative = -8.95244e-07
GAMG:  Solving for p, Initial residual = 4.14396e-05, Final residual = 9.95576e-07, No Iterations 36
time step continuity errors : sum local = 1.24729e-11, global = -3.41357e-12, cumulative = -8.95247e-07
smoothSolver:  Solving for nuTilda, Initial residual = 7.08659e-05, Final residual = 1.91464e-08, No Iterations 2
ExecutionTime = 59.01 s  ClockTime = 60 s

forceCoeffs forces write:
    Cm    = 0.141338
    Cd    = 0.282675
    Cl    = 0.0002184
    Cl(f) = 0.141447
    Cl(r) = -0.141228

Time = 0.57

Courant Number mean: 0.0135516 max: 0.356032
smoothSolver:  Solving for Ux, Initial residual = 0.00104661, Final residual = 1.45622e-09, No Iterations 2
smoothSolver:  Solving for Uy, Initial residual = 0.00086568, Final residual = 6.36744e-10, No Iterations 2
smoothSolver:  Solving for Uz, Initial residual = 0.239816, Final residual = 7.00288e-08, No Iterations 2
GAMG:  Solving for p, Initial residual = 0.0252891, Final residual = 0.000940147, No Iterations 6
time step continuity errors : sum local = 1.16382e-08, global = 2.26749e-09, cumulative = -8.9298e-07
GAMG:  Solving for p, Initial residual = 0.000982282, Final residual = 4.27002e-05, No Iterations 24
time step continuity errors : sum local = 5.15984e-10, global = 1.40384e-10, cumulative = -8.92839e-07
GAMG:  Solving for p, Initial residual = 4.30741e-05, Final residual = 8.9701e-07, No Iterations 40
time step continuity errors : sum local = 1.07511e-11, global = 3.0514e-12, cumulative = -8.92836e-07
smoothSolver:  Solving for nuTilda, Initial residual = 6.88175e-05, Final residual = 1.90506e-08, No Iterations 2
ExecutionTime = 61.99 s  ClockTime = 63 s

forceCoeffs forces write:
    Cm    = 0.134319
    Cd    = 0.268638
    Cl    = -0.000351049
    Cl(f) = 0.134144
    Cl(r) = -0.134495

Time = 0.6

Courant Number mean: 0.0135557 max: 0.356085
smoothSolver:  Solving for Ux, Initial residual = 0.00101546, Final residual = 1.39353e-09, No Iterations 2
smoothSolver:  Solving for Uy, Initial residual = 0.000845042, Final residual = 6.21291e-10, No Iterations 2
smoothSolver:  Solving for Uz, Initial residual = 0.260817, Final residual = 7.7632e-08, No Iterations 2
GAMG:  Solving for p, Initial residual = 0.0256271, Final residual = 0.00124603, No Iterations 4
time step continuity errors : sum local = 1.47579e-08, global = 3.17322e-09, cumulative = -8.89663e-07
GAMG:  Solving for p, Initial residual = 0.0012814, Final residual = 6.18505e-05, No Iterations 23
time step continuity errors : sum local = 7.20023e-10, global = -2.87719e-10, cumulative = -8.89951e-07
GAMG:  Solving for p, Initial residual = 6.23545e-05, Final residual = 9.83677e-07, No Iterations 42
time step continuity errors : sum local = 1.13844e-11, global = -4.4809e-12, cumulative = -8.89955e-07
smoothSolver:  Solving for nuTilda, Initial residual = 6.69889e-05, Final residual = 1.92281e-08, No Iterations 2
ExecutionTime = 64.84 s  ClockTime = 66 s

forceCoeffs forces write:
    Cm    = 0.129602
    Cd    = 0.259203
    Cl    = 0.0015506
    Cl(f) = 0.130377
    Cl(r) = -0.128827

Time = 0.63

Courant Number mean: 0.0135597 max: 0.356439
smoothSolver:  Solving for Ux, Initial residual = 0.000990625, Final residual = 1.351e-09, No Iterations 2
smoothSolver:  Solving for Uy, Initial residual = 0.000828459, Final residual = 6.10702e-10, No Iterations 2
smoothSolver:  Solving for Uz, Initial residual = 0.270178, Final residual = 8.10827e-08, No Iterations 2
GAMG:  Solving for p, Initial residual = 0.0261422, Final residual = 0.00113681, No Iterations 5
time step continuity errors : sum local = 1.30073e-08, global = -3.27163e-09, cumulative = -8.93227e-07
GAMG:  Solving for p, Initial residual = 0.00117137, Final residual = 5.32878e-05, No Iterations 21
time step continuity errors : sum local = 5.99611e-10, global = 1.53853e-10, cumulative = -8.93073e-07
GAMG:  Solving for p, Initial residual = 5.36348e-05, Final residual = 9.96588e-07, No Iterations 40
time step continuity errors : sum local = 1.11699e-11, global = 3.1372e-12, cumulative = -8.9307e-07
smoothSolver:  Solving for nuTilda, Initial residual = 6.53628e-05, Final residual = 1.94544e-08, No Iterations 2
ExecutionTime = 67.53 s  ClockTime = 68 s

forceCoeffs forces write:
    Cm    = 0.125115
    Cd    = 0.250229
    Cl    = 0.00161439
    Cl(f) = 0.125922
    Cl(r) = -0.124308

Time = 0.66

Courant Number mean: 0.0135635 max: 0.356781
smoothSolver:  Solving for Ux, Initial residual = 0.000969701, Final residual = 1.30809e-09, No Iterations 2
smoothSolver:  Solving for Uy, Initial residual = 0.000818181, Final residual = 6.04929e-10, No Iterations 2
smoothSolver:  Solving for Uz, Initial residual = 0.252408, Final residual = 6.67529e-08, No Iterations 2
GAMG:  Solving for p, Initial residual = 0.0256107, Final residual = 0.000984162, No Iterations 5
time step continuity errors : sum local = 1.09123e-08, global = -3.13779e-09, cumulative = -8.96208e-07
GAMG:  Solving for p, Initial residual = 0.00101007, Final residual = 4.63778e-05, No Iterations 20
time step continuity errors : sum local = 5.09363e-10, global = -1.34084e-10, cumulative = -8.96342e-07
GAMG:  Solving for p, Initial residual = 4.59412e-05, Final residual = 9.44934e-07, No Iterations 36
time step continuity errors : sum local = 1.0413e-11, global = -2.97982e-12, cumulative = -8.96345e-07
smoothSolver:  Solving for nuTilda, Initial residual = 6.39233e-05, Final residual = 1.96749e-08, No Iterations 2
ExecutionTime = 70.08 s  ClockTime = 71 s

forceCoeffs forces write:
    Cm    = 0.124171
    Cd    = 0.248342
    Cl    = 0.000986144
    Cl(f) = 0.124664
    Cl(r) = -0.123678

Time = 0.69

Courant Number mean: 0.0135673 max: 0.357116
smoothSolver:  Solving for Ux, Initial residual = 0.000959827, Final residual = 1.30704e-09, No Iterations 2
smoothSolver:  Solving for Uy, Initial residual = 0.000810743, Final residual = 6.03534e-10, No Iterations 2
smoothSolver:  Solving for Uz, Initial residual = 0.249127, Final residual = 6.60213e-08, No Iterations 2
GAMG:  Solving for p, Initial residual = 0.0255009, Final residual = 0.00124757, No Iterations 7
time step continuity errors : sum local = 1.36199e-08, global = -3.24812e-09, cumulative = -8.99593e-07
GAMG:  Solving for p, Initial residual = 0.00126295, Final residual = 5.47689e-05, No Iterations 30
time step continuity errors : sum local = 6.00019e-10, global = -1.67917e-10, cumulative = -8.99761e-07
GAMG:  Solving for p, Initial residual = 5.32948e-05, Final residual = 8.7935e-07, No Iterations 42
time step continuity errors : sum local = 9.71759e-12, global = -2.73197e-12, cumulative = -8.99764e-07
smoothSolver:  Solving for nuTilda, Initial residual = 6.26439e-05, Final residual = 1.99398e-08, No Iterations 2
ExecutionTime = 73.5 s  ClockTime = 74 s

forceCoeffs forces write:
    Cm    = 0.128766
    Cd    = 0.257533
    Cl    = 0.00398003
    Cl(f) = 0.130756
    Cl(r) = -0.126776

Time = 0.72

Courant Number mean: 0.0135714 max: 0.35745
smoothSolver:  Solving for Ux, Initial residual = 0.000974628, Final residual = 1.38828e-09, No Iterations 2
smoothSolver:  Solving for Uy, Initial residual = 0.000782568, Final residual = 5.81285e-10, No Iterations 2
smoothSolver:  Solving for Uz, Initial residual = 0.25453, Final residual = 6.91758e-08, No Iterations 2
GAMG:  Solving for p, Initial residual = 0.024656, Final residual = 0.0012117, No Iterations 10
time step continuity errors : sum local = 1.32672e-08, global = 2.32299e-09, cumulative = -8.97441e-07
GAMG:  Solving for p, Initial residual = 0.00128809, Final residual = 5.80464e-05, No Iterations 30
time step continuity errors : sum local = 6.06847e-10, global = 1.70577e-10, cumulative = -8.9727e-07
GAMG:  Solving for p, Initial residual = 5.75236e-05, Final residual = 8.80795e-07, No Iterations 44
time step continuity errors : sum local = 9.12677e-12, global = 2.61935e-12, cumulative = -8.97267e-07
smoothSolver:  Solving for nuTilda, Initial residual = 6.14959e-05, Final residual = 2.02284e-08, No Iterations 2
ExecutionTime = 76.85 s  ClockTime = 78 s

forceCoeffs forces write:
    Cm    = 0.11639
    Cd    = 0.232779
    Cl    = -0.00215231
    Cl(f) = 0.115314
    Cl(r) = -0.117466

Time = 0.75

Courant Number mean: 0.0135751 max: 0.357765
smoothSolver:  Solving for Ux, Initial residual = 0.000923461, Final residual = 1.24537e-09, No Iterations 2
smoothSolver:  Solving for Uy, Initial residual = 0.00078054, Final residual = 5.79663e-10, No Iterations 2
smoothSolver:  Solving for Uz, Initial residual = 0.247658, Final residual = 7.5029e-08, No Iterations 2
GAMG:  Solving for p, Initial residual = 0.0256937, Final residual = 0.00121871, No Iterations 5
time step continuity errors : sum local = 1.25156e-08, global = -2.81668e-09, cumulative = -9.00084e-07
GAMG:  Solving for p, Initial residual = 0.00123767, Final residual = 5.72761e-05, No Iterations 26
time step continuity errors : sum local = 5.88549e-10, global = -1.60558e-10, cumulative = -9.00245e-07
GAMG:  Solving for p, Initial residual = 5.61825e-05, Final residual = 9.81176e-07, No Iterations 42
time step continuity errors : sum local = 1.01871e-11, global = -2.89284e-12, cumulative = -9.00248e-07
smoothSolver:  Solving for nuTilda, Initial residual = 6.0451e-05, Final residual = 2.0548e-08, No Iterations 2
ExecutionTime = 79.71 s  ClockTime = 81 s

forceCoeffs forces write:
    Cm    = 0.119586
    Cd    = 0.239171
    Cl    = -0.00122405
    Cl(f) = 0.118974
    Cl(r) = -0.120198

Time = 0.78

Courant Number mean: 0.0135789 max: 0.358073
smoothSolver:  Solving for Ux, Initial residual = 0.000928172, Final residual = 1.2929e-09, No Iterations 2
smoothSolver:  Solving for Uy, Initial residual = 0.000764612, Final residual = 5.72162e-10, No Iterations 2
smoothSolver:  Solving for Uz, Initial residual = 0.258826, Final residual = 7.36943e-08, No Iterations 2
GAMG:  Solving for p, Initial residual = 0.0254493, Final residual = 0.00084652, No Iterations 6
time step continuity errors : sum local = 8.71685e-09, global = 2.2021e-09, cumulative = -8.98046e-07
GAMG:  Solving for p, Initial residual = 0.000881316, Final residual = 3.6609e-05, No Iterations 28
time step continuity errors : sum local = 3.71142e-10, global = 1.04271e-10, cumulative = -8.97941e-07
GAMG:  Solving for p, Initial residual = 3.63946e-05, Final residual = 8.4517e-07, No Iterations 40
time step continuity errors : sum local = 8.51159e-12, global = 2.48131e-12, cumulative = -8.97939e-07
smoothSolver:  Solving for nuTilda, Initial residual = 5.95017e-05, Final residual = 2.08112e-08, No Iterations 2
ExecutionTime = 82.6 s  ClockTime = 83 s

forceCoeffs forces write:
    Cm    = 0.115172
    Cd    = 0.230344
    Cl    = -0.0023618
    Cl(f) = 0.113991
    Cl(r) = -0.116353

Time = 0.81

Courant Number mean: 0.0135826 max: 0.358371
smoothSolver:  Solving for Ux, Initial residual = 0.00090997, Final residual = 1.25178e-09, No Iterations 2
smoothSolver:  Solving for Uy, Initial residual = 0.000758837, Final residual = 5.67863e-10, No Iterations 2
smoothSolver:  Solving for Uz, Initial residual = 0.240961, Final residual = 6.18118e-08, No Iterations 2
GAMG:  Solving for p, Initial residual = 0.0254153, Final residual = 0.00102759, No Iterations 5
time step continuity errors : sum local = 1.0266e-08, global = -2.60578e-09, cumulative = -9.00545e-07
GAMG:  Solving for p, Initial residual = 0.00104927, Final residual = 4.89326e-05, No Iterations 20
time step continuity errors : sum local = 4.8752e-10, global = -1.40774e-10, cumulative = -9.00685e-07
GAMG:  Solving for p, Initial residual = 4.86062e-05, Final residual = 9.27179e-07, No Iterations 33
time step continuity errors : sum local = 9.27673e-12, global = 3.43138e-12, cumulative = -9.00682e-07
smoothSolver:  Solving for nuTilda, Initial residual = 5.86257e-05, Final residual = 2.11062e-08, No Iterations 2
ExecutionTime = 85.09 s  ClockTime = 86 s

forceCoeffs forces write:
    Cm    = 0.115065
    Cd    = 0.23013
    Cl    = -0.00395339
    Cl(f) = 0.113088
    Cl(r) = -0.117042

Time = 0.84

Courant Number mean: 0.0135864 max: 0.358688
smoothSolver:  Solving for Ux, Initial residual = 0.000905838, Final residual = 1.25672e-09, No Iterations 2
smoothSolver:  Solving for Uy, Initial residual = 0.000760994, Final residual = 5.776e-10, No Iterations 2
smoothSolver:  Solving for Uz, Initial residual = 0.26529, Final residual = 6.59512e-08, No Iterations 2
GAMG:  Solving for p, Initial residual = 0.0251373, Final residual = 0.000826076, No Iterations 6
time step continuity errors : sum local = 8.20255e-09, global = 1.91707e-09, cumulative = -8.98765e-07
GAMG:  Solving for p, Initial residual = 0.000860825, Final residual = 3.91935e-05, No Iterations 23
time step continuity errors : sum local = 3.82728e-10, global = -1.51709e-10, cumulative = -8.98917e-07
GAMG:  Solving for p, Initial residual = 3.9406e-05, Final residual = 8.99949e-07, No Iterations 38
time step continuity errors : sum local = 8.74742e-12, global = -3.1489e-12, cumulative = -8.9892e-07
smoothSolver:  Solving for nuTilda, Initial residual = 5.78108e-05, Final residual = 2.14391e-08, No Iterations 2
ExecutionTime = 87.8 s  ClockTime = 89 s

forceCoeffs forces write:
    Cm    = 0.11179
    Cd    = 0.22358
    Cl    = -0.00136102
    Cl(f) = 0.11111
    Cl(r) = -0.112471

Time = 0.87

Courant Number mean: 0.0135901 max: 0.359005
smoothSolver:  Solving for Ux, Initial residual = 0.000889913, Final residual = 1.22978e-09, No Iterations 2
smoothSolver:  Solving for Uy, Initial residual = 0.000742417, Final residual = 5.62839e-10, No Iterations 2
smoothSolver:  Solving for Uz, Initial residual = 0.242629, Final residual = 6.85122e-08, No Iterations 2
GAMG:  Solving for p, Initial residual = 0.025714, Final residual = 0.00117604, No Iterations 5
time step continuity errors : sum local = 1.1347e-08, global = -3.46605e-09, cumulative = -9.02386e-07
GAMG:  Solving for p, Initial residual = 0.00120537, Final residual = 5.80508e-05, No Iterations 29
time step continuity errors : sum local = 5.54806e-10, global = 2.08234e-10, cumulative = -9.02178e-07
GAMG:  Solving for p, Initial residual = 5.79567e-05, Final residual = 8.94581e-07, No Iterations 45
time step continuity errors : sum local = 8.54773e-12, global = -2.86164e-12, cumulative = -9.0218e-07
smoothSolver:  Solving for nuTilda, Initial residual = 5.70375e-05, Final residual = 2.17735e-08, No Iterations 2
ExecutionTime = 90.82 s  ClockTime = 92 s

forceCoeffs forces write:
    Cm    = 0.110164
    Cd    = 0.220328
    Cl    = 0.00312044
    Cl(f) = 0.111724
    Cl(r) = -0.108604

Time = 0.9

Courant Number mean: 0.0135937 max: 0.359316
smoothSolver:  Solving for Ux, Initial residual = 0.00087925, Final residual = 1.21871e-09, No Iterations 2
smoothSolver:  Solving for Uy, Initial residual = 0.000734463, Final residual = 5.60868e-10, No Iterations 2
smoothSolver:  Solving for Uz, Initial residual = 0.231405, Final residual = 5.44671e-08, No Iterations 2
GAMG:  Solving for p, Initial residual = 0.025388, Final residual = 0.0011099, No Iterations 6
time step continuity errors : sum local = 1.05293e-08, global = 3.43378e-09, cumulative = -8.98747e-07
GAMG:  Solving for p, Initial residual = 0.00114272, Final residual = 5.45478e-05, No Iterations 29
time step continuity errors : sum local = 5.11732e-10, global = -1.94269e-10, cumulative = -8.98941e-07
GAMG:  Solving for p, Initial residual = 5.43457e-05, Final residual = 9.2633e-07, No Iterations 43
time step continuity errors : sum local = 8.65991e-12, global = 2.90394e-12, cumulative = -8.98938e-07
smoothSolver:  Solving for nuTilda, Initial residual = 5.6301e-05, Final residual = 2.2095e-08, No Iterations 2
ExecutionTime = 94.09 s  ClockTime = 95 s

forceCoeffs forces write:
    Cm    = 0.10811
    Cd    = 0.216219
    Cl    = -0.00172194
    Cl(f) = 0.107249
    Cl(r) = -0.108971

Time = 0.93

Courant Number mean: 0.0135973 max: 0.359619
smoothSolver:  Solving for Ux, Initial residual = 0.000871865, Final residual = 1.20363e-09, No Iterations 2
smoothSolver:  Solving for Uy, Initial residual = 0.000720274, Final residual = 5.48061e-10, No Iterations 2
smoothSolver:  Solving for Uz, Initial residual = 0.248978, Final residual = 7.70841e-08, No Iterations 2
GAMG:  Solving for p, Initial residual = 0.0253107, Final residual = 0.00114131, No Iterations 7
time step continuity errors : sum local = 1.06014e-08, global = -2.5146e-09, cumulative = -9.01453e-07
GAMG:  Solving for p, Initial residual = 0.00115174, Final residual = 4.76092e-05, No Iterations 30
time step continuity errors : sum local = 4.48457e-10, global = -1.28117e-10, cumulative = -9.01581e-07
GAMG:  Solving for p, Initial residual = 4.66382e-05, Final residual = 9.16033e-07, No Iterations 42
time step continuity errors : sum local = 8.68514e-12, global = -2.57886e-12, cumulative = -9.01583e-07
smoothSolver:  Solving for nuTilda, Initial residual = 5.55862e-05, Final residual = 2.24135e-08, No Iterations 2
ExecutionTime = 97.12 s  ClockTime = 98 s

forceCoeffs forces write:
    Cm    = 0.112306
    Cd    = 0.224612
    Cl    = 0.0047319
    Cl(f) = 0.114672
    Cl(r) = -0.10994

Time = 0.96

Courant Number mean: 0.0136011 max: 0.359924
smoothSolver:  Solving for Ux, Initial residual = 0.000881987, Final residual = 1.26613e-09, No Iterations 2
smoothSolver:  Solving for Uy, Initial residual = 0.000716637, Final residual = 5.5388e-10, No Iterations 2
smoothSolver:  Solving for Uz, Initial residual = 0.238408, Final residual = 6.79347e-08, No Iterations 2
GAMG:  Solving for p, Initial residual = 0.0248689, Final residual = 0.0010592, No Iterations 12
time step continuity errors : sum local = 9.97658e-09, global = 2.04131e-09, cumulative = -8.99542e-07
GAMG:  Solving for p, Initial residual = 0.00112485, Final residual = 5.43241e-05, No Iterations 30
time step continuity errors : sum local = 4.91119e-10, global = 1.40113e-10, cumulative = -8.99402e-07
GAMG:  Solving for p, Initial residual = 5.36906e-05, Final residual = 8.7915e-07, No Iterations 44
time step continuity errors : sum local = 7.89465e-12, global = 2.31581e-12, cumulative = -8.994e-07
smoothSolver:  Solving for nuTilda, Initial residual = 5.48894e-05, Final residual = 2.07859e-08, No Iterations 2
ExecutionTime = 100.3 s  ClockTime = 101 s

forceCoeffs forces write:
    Cm    = 0.103215
    Cd    = 0.20643
    Cl    = -0.00424238
    Cl(f) = 0.101094
    Cl(r) = -0.105336

Time = 0.99

Courant Number mean: 0.0136046 max: 0.360215
smoothSolver:  Solving for Ux, Initial residual = 0.00084877, Final residual = 1.15927e-09, No Iterations 2
smoothSolver:  Solving for Uy, Initial residual = 0.000715446, Final residual = 5.52499e-10, No Iterations 2
smoothSolver:  Solving for Uz, Initial residual = 0.247552, Final residual = 7.09849e-08, No Iterations 2
GAMG:  Solving for p, Initial residual = 0.0262035, Final residual = 0.00129862, No Iterations 7
time step continuity errors : sum local = 1.15907e-08, global = -2.53221e-09, cumulative = -9.01932e-07
GAMG:  Solving for p, Initial residual = 0.00130319, Final residual = 6.11433e-05, No Iterations 30
time step continuity errors : sum local = 5.53256e-10, global = -1.61231e-10, cumulative = -9.02093e-07
GAMG:  Solving for p, Initial residual = 5.97406e-05, Final residual = 8.38139e-07, No Iterations 46
time step continuity errors : sum local = 7.63487e-12, global = -2.26565e-12, cumulative = -9.02095e-07
smoothSolver:  Solving for nuTilda, Initial residual = 5.4201e-05, Final residual = 2.10552e-08, No Iterations 2
ExecutionTime = 103.51 s  ClockTime = 104 s

forceCoeffs forces write:
    Cm    = 0.10755
    Cd    = 0.2151
    Cl    = 0.00402276
    Cl(f) = 0.109562
    Cl(r) = -0.105539

Time = 1.02

Courant Number mean: 0.0136083 max: 0.360505
smoothSolver:  Solving for Ux, Initial residual = 0.00085707, Final residual = 1.21764e-09, No Iterations 2
smoothSolver:  Solving for Uy, Initial residual = 0.000706155, Final residual = 5.48801e-10, No Iterations 2
smoothSolver:  Solving for Uz, Initial residual = 0.244127, Final residual = 6.35601e-08, No Iterations 2
GAMG:  Solving for p, Initial residual = 0.025511, Final residual = 0.00111914, No Iterations 7
time step continuity errors : sum local = 1.01392e-08, global = -3.3409e-09, cumulative = -9.05436e-07
GAMG:  Solving for p, Initial residual = 0.00114486, Final residual = 5.70034e-05, No Iterations 29
time step continuity errors : sum local = 5.1512e-10, global = 2.01991e-10, cumulative = -9.05234e-07
GAMG:  Solving for p, Initial residual = 5.62854e-05, Final residual = 9.74739e-07, No Iterations 41
time step continuity errors : sum local = 8.84018e-12, global = -2.96748e-12, cumulative = -9.05237e-07
smoothSolver:  Solving for nuTilda, Initial residual = 5.35134e-05, Final residual = 2.12851e-08, No Iterations 2
ExecutionTime = 106.56 s  ClockTime = 107 s

forceCoeffs forces write:
    Cm    = 0.108835
    Cd    = 0.21767
    Cl    = -0.00190538
    Cl(f) = 0.107882
    Cl(r) = -0.109788

Time = 1.05

Courant Number mean: 0.0136121 max: 0.360791
smoothSolver:  Solving for Ux, Initial residual = 0.000864272, Final residual = 1.24864e-09, No Iterations 2
smoothSolver:  Solving for Uy, Initial residual = 0.000689044, Final residual = 5.35858e-10, No Iterations 2
smoothSolver:  Solving for Uz, Initial residual = 0.260871, Final residual = 6.1464e-08, No Iterations 2
GAMG:  Solving for p, Initial residual = 0.0251774, Final residual = 0.00116753, No Iterations 8
time step continuity errors : sum local = 1.0529e-08, global = 1.5613e-09, cumulative = -9.03676e-07
GAMG:  Solving for p, Initial residual = 0.00123354, Final residual = 5.17859e-05, No Iterations 26
time step continuity errors : sum local = 4.51115e-10, global = 1.18113e-10, cumulative = -9.03558e-07
GAMG:  Solving for p, Initial residual = 5.1539e-05, Final residual = 8.60282e-07, No Iterations 40
time step continuity errors : sum local = 7.41951e-12, global = 2.04796e-12, cumulative = -9.03556e-07
smoothSolver:  Solving for nuTilda, Initial residual = 5.28202e-05, Final residual = 2.13198e-08, No Iterations 2
ExecutionTime = 109.45 s  ClockTime = 110 s

forceCoeffs forces write:
    Cm    = 0.100774
    Cd    = 0.201548
    Cl    = 0.000933402
    Cl(f) = 0.101241
    Cl(r) = -0.100307

Time = 1.08

Courant Number mean: 0.0136156 max: 0.361064
smoothSolver:  Solving for Ux, Initial residual = 0.000828578, Final residual = 1.15384e-09, No Iterations 2
smoothSolver:  Solving for Uy, Initial residual = 0.000684721, Final residual = 5.33537e-10, No Iterations 2
smoothSolver:  Solving for Uz, Initial residual = 0.250053, Final residual = 7.87766e-08, No Iterations 2
GAMG:  Solving for p, Initial residual = 0.0265746, Final residual = 0.00113403, No Iterations 5
time step continuity errors : sum local = 9.72388e-09, global = -2.13335e-09, cumulative = -9.05689e-07
GAMG:  Solving for p, Initial residual = 0.0011451, Final residual = 4.75668e-05, No Iterations 22
time step continuity errors : sum local = 4.11477e-10, global = -1.02113e-10, cumulative = -9.05791e-07
GAMG:  Solving for p, Initial residual = 4.6866e-05, Final residual = 8.34309e-07, No Iterations 40
time step continuity errors : sum local = 7.27741e-12, global = -2.03771e-12, cumulative = -9.05793e-07
smoothSolver:  Solving for nuTilda, Initial residual = 5.21081e-05, Final residual = 2.14908e-08, No Iterations 2
ExecutionTime = 112.15 s  ClockTime = 113 s

forceCoeffs forces write:
    Cm    = 0.103723
    Cd    = 0.207445
    Cl    = 0.00330419
    Cl(f) = 0.105375
    Cl(r) = -0.102071

Time = 1.11

Courant Number mean: 0.0136192 max: 0.361332
smoothSolver:  Solving for Ux, Initial residual = 0.000836503, Final residual = 1.18955e-09, No Iterations 2
smoothSolver:  Solving for Uy, Initial residual = 0.000686511, Final residual = 5.39997e-10, No Iterations 2
smoothSolver:  Solving for Uz, Initial residual = 0.26017, Final residual = 7.68829e-08, No Iterations 2
GAMG:  Solving for p, Initial residual = 0.0255054, Final residual = 0.00124615, No Iterations 6
time step continuity errors : sum local = 1.08161e-08, global = 3.88598e-09, cumulative = -9.01907e-07
GAMG:  Solving for p, Initial residual = 0.00126883, Final residual = 5.49156e-05, No Iterations 28
time step continuity errors : sum local = 4.75436e-10, global = 1.58358e-10, cumulative = -9.01749e-07
GAMG:  Solving for p, Initial residual = 5.43533e-05, Final residual = 9.51694e-07, No Iterations 44
time step continuity errors : sum local = 8.21912e-12, global = 2.62689e-12, cumulative = -9.01746e-07
smoothSolver:  Solving for nuTilda, Initial residual = 5.13776e-05, Final residual = 2.16499e-08, No Iterations 2
ExecutionTime = 115.23 s  ClockTime = 116 s

forceCoeffs forces write:
    Cm    = 0.102879
    Cd    = 0.205757
    Cl    = -0.0040104
    Cl(f) = 0.100873
    Cl(r) = -0.104884

Time = 1.14

Courant Number mean: 0.0136228 max: 0.361593
smoothSolver:  Solving for Ux, Initial residual = 0.000834127, Final residual = 1.18586e-09, No Iterations 2
smoothSolver:  Solving for Uy, Initial residual = 0.000686982, Final residual = 5.45791e-10, No Iterations 2
smoothSolver:  Solving for Uz, Initial residual = 0.245988, Final residual = 7.05463e-08, No Iterations 2
GAMG:  Solving for p, Initial residual = 0.025346, Final residual = 0.000962223, No Iterations 7
time step continuity errors : sum local = 8.26952e-09, global = -1.83049e-09, cumulative = -9.03577e-07
GAMG:  Solving for p, Initial residual = 0.000981011, Final residual = 4.7645e-05, No Iterations 28
time step continuity errors : sum local = 4.11917e-10, global = -1.1623e-10, cumulative = -9.03693e-07
GAMG:  Solving for p, Initial residual = 4.67934e-05, Final residual = 9.15408e-07, No Iterations 42
time step continuity errors : sum local = 7.95643e-12, global = -2.33232e-12, cumulative = -9.03695e-07
smoothSolver:  Solving for nuTilda, Initial residual = 5.0622e-05, Final residual = 2.17991e-08, No Iterations 2
ExecutionTime = 118.2 s  ClockTime = 119 s

forceCoeffs forces write:
    Cm    = 0.105485
    Cd    = 0.21097
    Cl    = 0.00123845
    Cl(f) = 0.106104
    Cl(r) = -0.104866

Time = 1.17

Courant Number mean: 0.0136266 max: 0.36185
smoothSolver:  Solving for Ux, Initial residual = 0.000840782, Final residual = 1.22696e-09, No Iterations 2
smoothSolver:  Solving for Uy, Initial residual = 0.000679659, Final residual = 5.39907e-10, No Iterations 2
smoothSolver:  Solving for Uz, Initial residual = 0.248967, Final residual = 6.20791e-08, No Iterations 2
GAMG:  Solving for p, Initial residual = 0.0250514, Final residual = 0.0012011, No Iterations 8
time step continuity errors : sum local = 1.03869e-08, global = 1.7377e-09, cumulative = -9.01958e-07
GAMG:  Solving for p, Initial residual = 0.00125734, Final residual = 5.53734e-05, No Iterations 24
time step continuity errors : sum local = 4.65208e-10, global = 1.19968e-10, cumulative = -9.01838e-07
GAMG:  Solving for p, Initial residual = 5.52206e-05, Final residual = 9.0816e-07, No Iterations 42
time step continuity errors : sum local = 7.55824e-12, global = 2.15475e-12, cumulative = -9.01835e-07
smoothSolver:  Solving for nuTilda, Initial residual = 4.98365e-05, Final residual = 2.19286e-08, No Iterations 2
ExecutionTime = 121.09 s  ClockTime = 122 s

forceCoeffs forces write:
    Cm    = 0.0994874
    Cd    = 0.198975
    Cl    = 0.000135312
    Cl(f) = 0.099555
    Cl(r) = -0.0994197

Time = 1.2

Courant Number mean: 0.0136302 max: 0.362095
smoothSolver:  Solving for Ux, Initial residual = 0.000817251, Final residual = 1.15832e-09, No Iterations 2
smoothSolver:  Solving for Uy, Initial residual = 0.000666362, Final residual = 5.27889e-10, No Iterations 2
smoothSolver:  Solving for Uz, Initial residual = 0.240018, Final residual = 5.8371e-08, No Iterations 2
GAMG:  Solving for p, Initial residual = 0.0258712, Final residual = 0.000901495, No Iterations 6
time step continuity errors : sum local = 7.46609e-09, global = -2.07417e-09, cumulative = -9.0391e-07
GAMG:  Solving for p, Initial residual = 0.000904094, Final residual = 4.45513e-05, No Iterations 22
time step continuity errors : sum local = 3.78107e-10, global = -9.66087e-11, cumulative = -9.04006e-07
GAMG:  Solving for p, Initial residual = 4.35818e-05, Final residual = 8.90391e-07, No Iterations 38
time step continuity errors : sum local = 7.62465e-12, global = -2.10294e-12, cumulative = -9.04008e-07
smoothSolver:  Solving for nuTilda, Initial residual = 4.90182e-05, Final residual = 2.20462e-08, No Iterations 2
ExecutionTime = 123.98 s  ClockTime = 125 s

forceCoeffs forces write:
    Cm    = 0.105929
    Cd    = 0.211859
    Cl    = -0.00195994
    Cl(f) = 0.104949
    Cl(r) = -0.106909

Time = 1.23

Courant Number mean: 0.0136341 max: 0.362339
smoothSolver:  Solving for Ux, Initial residual = 0.0008418, Final residual = 1.24545e-09, No Iterations 2
smoothSolver:  Solving for Uy, Initial residual = 0.000660406, Final residual = 5.28414e-10, No Iterations 2
smoothSolver:  Solving for Uz, Initial residual = 0.232191, Final residual = 5.75554e-08, No Iterations 2
GAMG:  Solving for p, Initial residual = 0.0255317, Final residual = 0.00117998, No Iterations 8
time step continuity errors : sum local = 1.0057e-08, global = 1.59256e-09, cumulative = -9.02416e-07
GAMG:  Solving for p, Initial residual = 0.00124061, Final residual = 5.71251e-05, No Iterations 26
time step continuity errors : sum local = 4.72439e-10, global = 1.24451e-10, cumulative = -9.02291e-07
GAMG:  Solving for p, Initial residual = 5.69336e-05, Final residual = 9.62374e-07, No Iterations 42
time step continuity errors : sum local = 7.87127e-12, global = 2.22273e-12, cumulative = -9.02289e-07
smoothSolver:  Solving for nuTilda, Initial residual = 4.81677e-05, Final residual = 2.21385e-08, No Iterations 2
ExecutionTime = 126.92 s  ClockTime = 128 s

forceCoeffs forces write:
    Cm    = 0.0987498
    Cd    = 0.197499
    Cl    = -0.00379584
    Cl(f) = 0.0968518
    Cl(r) = -0.100648

Time = 1.26

Courant Number mean: 0.0136377 max: 0.36257
smoothSolver:  Solving for Ux, Initial residual = 0.000810853, Final residual = 1.1575e-09, No Iterations 2
smoothSolver:  Solving for Uy, Initial residual = 0.000661536, Final residual = 5.34131e-10, No Iterations 2
smoothSolver:  Solving for Uz, Initial residual = 0.261047, Final residual = 8.15193e-08, No Iterations 2
GAMG:  Solving for p, Initial residual = 0.0263942, Final residual = 0.00110114, No Iterations 7
time step continuity errors : sum local = 8.96289e-09, global = -2.46149e-09, cumulative = -9.04751e-07
GAMG:  Solving for p, Initial residual = 0.00112009, Final residual = 4.95757e-05, No Iterations 32
time step continuity errors : sum local = 4.04617e-10, global = -1.23836e-10, cumulative = -9.04874e-07
GAMG:  Solving for p, Initial residual = 4.8588e-05, Final residual = 8.4773e-07, No Iterations 44
time step continuity errors : sum local = 6.94928e-12, global = -2.09286e-12, cumulative = -9.04876e-07
smoothSolver:  Solving for nuTilda, Initial residual = 4.72922e-05, Final residual = 2.22087e-08, No Iterations 2
ExecutionTime = 130.04 s  ClockTime = 131 s

forceCoeffs forces write:
    Cm    = 0.100633
    Cd    = 0.201265
    Cl    = 0.00188183
    Cl(f) = 0.101574
    Cl(r) = -0.0996919

Time = 1.29

Courant Number mean: 0.0136414 max: 0.362795
smoothSolver:  Solving for Ux, Initial residual = 0.000817456, Final residual = 1.18534e-09, No Iterations 2
smoothSolver:  Solving for Uy, Initial residual = 0.000653838, Final residual = 5.2659e-10, No Iterations 2
smoothSolver:  Solving for Uz, Initial residual = 0.235268, Final residual = 6.89415e-08, No Iterations 2
GAMG:  Solving for p, Initial residual = 0.0257867, Final residual = 0.00118266, No Iterations 6
time step continuity errors : sum local = 9.65178e-09, global = 2.4862e-09, cumulative = -9.0239e-07
GAMG:  Solving for p, Initial residual = 0.00122348, Final residual = 5.87312e-05, No Iterations 22
time step continuity errors : sum local = 4.70873e-10, global = 1.12734e-10, cumulative = -9.02278e-07
GAMG:  Solving for p, Initial residual = 5.90028e-05, Final residual = 8.93621e-07, No Iterations 40
time step continuity errors : sum local = 7.08964e-12, global = 1.93939e-12, cumulative = -9.02276e-07
smoothSolver:  Solving for nuTilda, Initial residual = 4.63855e-05, Final residual = 2.22715e-08, No Iterations 2
ExecutionTime = 132.93 s  ClockTime = 134 s

forceCoeffs forces write:
    Cm    = 0.0964822
    Cd    = 0.192964
    Cl    = 0.00277747
    Cl(f) = 0.0978709
    Cl(r) = -0.0950935

Time = 1.32

Courant Number mean: 0.0136449 max: 0.363008
smoothSolver:  Solving for Ux, Initial residual = 0.000797628, Final residual = 1.13499e-09, No Iterations 2
smoothSolver:  Solving for Uy, Initial residual = 0.000641012, Final residual = 5.18825e-10, No Iterations 2
smoothSolver:  Solving for Uz, Initial residual = 0.236371, Final residual = 6.1716e-08, No Iterations 2
GAMG:  Solving for p, Initial residual = 0.0264898, Final residual = 0.00107043, No Iterations 10
time step continuity errors : sum local = 8.45744e-09, global = -1.07724e-09, cumulative = -9.03353e-07
GAMG:  Solving for p, Initial residual = 0.00105478, Final residual = 4.46923e-05, No Iterations 24
time step continuity errors : sum local = 3.66848e-10, global = -9.23875e-11, cumulative = -9.03445e-07
GAMG:  Solving for p, Initial residual = 4.38826e-05, Final residual = 8.32021e-07, No Iterations 40
time step continuity errors : sum local = 6.87983e-12, global = -1.92725e-12, cumulative = -9.03447e-07
smoothSolver:  Solving for nuTilda, Initial residual = 4.54566e-05, Final residual = 2.237e-08, No Iterations 2
ExecutionTime = 135.91 s  ClockTime = 137 s

forceCoeffs forces write:
    Cm    = 0.103706
    Cd    = 0.207411
    Cl    = 0.00281216
    Cl(f) = 0.105112
    Cl(r) = -0.1023

Time = 1.35

Courant Number mean: 0.0136488 max: 0.363338
smoothSolver:  Solving for Ux, Initial residual = 0.00082745, Final residual = 1.23125e-09, No Iterations 2
smoothSolver:  Solving for Uy, Initial residual = 0.000651301, Final residual = 5.31647e-10, No Iterations 2
smoothSolver:  Solving for Uz, Initial residual = 0.228873, Final residual = 6.79622e-08, No Iterations 2
GAMG:  Solving for p, Initial residual = 0.0256235, Final residual = 0.00106879, No Iterations 8
time step continuity errors : sum local = 8.80445e-09, global = 2.04079e-09, cumulative = -9.01406e-07
GAMG:  Solving for p, Initial residual = 0.0011176, Final residual = 5.30547e-05, No Iterations 30
time step continuity errors : sum local = 4.27626e-10, global = 1.26011e-10, cumulative = -9.0128e-07
GAMG:  Solving for p, Initial residual = 5.26947e-05, Final residual = 8.98762e-07, No Iterations 44
time step continuity errors : sum local = 7.1867e-12, global = 2.14062e-12, cumulative = -9.01278e-07
smoothSolver:  Solving for nuTilda, Initial residual = 4.45189e-05, Final residual = 2.24691e-08, No Iterations 2
ExecutionTime = 139.18 s  ClockTime = 140 s

forceCoeffs forces write:
    Cm    = 0.0995342
    Cd    = 0.199069
    Cl    = -0.00174695
    Cl(f) = 0.0986608
    Cl(r) = -0.100408

Time = 1.38

Courant Number mean: 0.0136525 max: 0.363793
smoothSolver:  Solving for Ux, Initial residual = 0.000804113, Final residual = 1.1808e-09, No Iterations 2
smoothSolver:  Solving for Uy, Initial residual = 0.000643529, Final residual = 5.25928e-10, No Iterations 2
smoothSolver:  Solving for Uz, Initial residual = 0.246654, Final residual = 5.76315e-08, No Iterations 2
GAMG:  Solving for p, Initial residual = 0.0262144, Final residual = 0.00100073, No Iterations 10
time step continuity errors : sum local = 7.96157e-09, global = 1.18423e-09, cumulative = -9.00094e-07
GAMG:  Solving for p, Initial residual = 0.00107155, Final residual = 4.47991e-05, No Iterations 24
time step continuity errors : sum local = 3.42471e-10, global = 8.02938e-11, cumulative = -9.00014e-07
GAMG:  Solving for p, Initial residual = 4.44213e-05, Final residual = 9.58296e-07, No Iterations 36
time step continuity errors : sum local = 7.27307e-12, global = 1.94809e-12, cumulative = -9.00012e-07
smoothSolver:  Solving for nuTilda, Initial residual = 4.35772e-05, Final residual = 2.24844e-08, No Iterations 2
ExecutionTime = 141.97 s  ClockTime = 143 s

forceCoeffs forces write:
    Cm    = 0.0927614
    Cd    = 0.185522
    Cl    = 0.000277587
    Cl(f) = 0.0929002
    Cl(r) = -0.0926226

Time = 1.41

Courant Number mean: 0.013656 max: 0.364238
smoothSolver:  Solving for Ux, Initial residual = 0.000781101, Final residual = 1.09662e-09, No Iterations 2
smoothSolver:  Solving for Uy, Initial residual = 0.000635481, Final residual = 5.17035e-10, No Iterations 2
smoothSolver:  Solving for Uz, Initial residual = 0.257993, Final residual = 6.04387e-08, No Iterations 2
GAMG:  Solving for p, Initial residual = 0.0272477, Final residual = 0.00123217, No Iterations 5
time step continuity errors : sum local = 9.31527e-09, global = -1.94804e-09, cumulative = -9.0196e-07
GAMG:  Solving for p, Initial residual = 0.00123277, Final residual = 6.05711e-05, No Iterations 22
time step continuity errors : sum local = 4.65947e-10, global = -1.25151e-10, cumulative = -9.02085e-07
GAMG:  Solving for p, Initial residual = 5.95698e-05, Final residual = 9.65865e-07, No Iterations 42
time step continuity errors : sum local = 7.48302e-12, global = -2.1813e-12, cumulative = -9.02087e-07
smoothSolver:  Solving for nuTilda, Initial residual = 4.26393e-05, Final residual = 2.2422e-08, No Iterations 2
ExecutionTime = 144.78 s  ClockTime = 146 s

forceCoeffs forces write:
    Cm    = 0.0964455
    Cd    = 0.192891
    Cl    = 0.00180683
    Cl(f) = 0.0973489
    Cl(r) = -0.0955421

Time = 1.44

Courant Number mean: 0.0136595 max: 0.364683
smoothSolver:  Solving for Ux, Initial residual = 0.000786367, Final residual = 1.13482e-09, No Iterations 2
smoothSolver:  Solving for Uy, Initial residual = 0.000644898, Final residual = 5.29721e-10, No Iterations 2
smoothSolver:  Solving for Uz, Initial residual = 0.230077, Final residual = 5.76465e-08, No Iterations 2
GAMG:  Solving for p, Initial residual = 0.0266004, Final residual = 0.00126355, No Iterations 5
time step continuity errors : sum local = 9.76045e-09, global = -2.47616e-09, cumulative = -9.04563e-07
GAMG:  Solving for p, Initial residual = 0.0012724, Final residual = 6.10256e-05, No Iterations 28
time step continuity errors : sum local = 4.75608e-10, global = -1.36862e-10, cumulative = -9.047e-07
GAMG:  Solving for p, Initial residual = 5.93762e-05, Final residual = 8.8749e-07, No Iterations 42
time step continuity errors : sum local = 6.973e-12, global = -1.94747e-12, cumulative = -9.04702e-07
smoothSolver:  Solving for nuTilda, Initial residual = 4.17179e-05, Final residual = 2.24384e-08, No Iterations 2
ExecutionTime = 147.69 s  ClockTime = 149 s

forceCoeffs forces write:
    Cm    = 0.100147
    Cd    = 0.200294
    Cl    = 0.0005481
    Cl(f) = 0.100421
    Cl(r) = -0.099873

Time = 1.47

Courant Number mean: 0.0136632 max: 0.365131
smoothSolver:  Solving for Ux, Initial residual = 0.00080702, Final residual = 1.19353e-09, No Iterations 2
smoothSolver:  Solving for Uy, Initial residual = 0.000629792, Final residual = 5.17532e-10, No Iterations 2
smoothSolver:  Solving for Uz, Initial residual = 0.226086, Final residual = 5.60111e-08, No Iterations 2
GAMG:  Solving for p, Initial residual = 0.0255924, Final residual = 0.000939866, No Iterations 6
time step continuity errors : sum local = 7.35879e-09, global = 2.25428e-09, cumulative = -9.02448e-07
GAMG:  Solving for p, Initial residual = 0.000974551, Final residual = 4.06878e-05, No Iterations 30
time step continuity errors : sum local = 3.14328e-10, global = 8.53616e-11, cumulative = -9.02362e-07
GAMG:  Solving for p, Initial residual = 4.02096e-05, Final residual = 8.67289e-07, No Iterations 40
time step continuity errors : sum local = 6.63132e-12, global = 1.89267e-12, cumulative = -9.02361e-07
smoothSolver:  Solving for nuTilda, Initial residual = 4.08272e-05, Final residual = 2.23154e-08, No Iterations 2
ExecutionTime = 150.75 s  ClockTime = 152 s

forceCoeffs forces write:
    Cm    = 0.0965017
    Cd    = 0.193003
    Cl    = -0.0026168
    Cl(f) = 0.0951933
    Cl(r) = -0.0978101

Time = 1.5

Courant Number mean: 0.0136669 max: 0.365575
smoothSolver:  Solving for Ux, Initial residual = 0.00079101, Final residual = 1.14887e-09, No Iterations 2
smoothSolver:  Solving for Uy, Initial residual = 0.000634273, Final residual = 5.24798e-10, No Iterations 2
smoothSolver:  Solving for Uz, Initial residual = 0.234421, Final residual = 6.17798e-08, No Iterations 2
GAMG:  Solving for p, Initial residual = 0.0271658, Final residual = 0.00119128, No Iterations 8
time step continuity errors : sum local = 9.07378e-09, global = 1.78368e-09, cumulative = -9.00577e-07
GAMG:  Solving for p, Initial residual = 0.00124687, Final residual = 5.10119e-05, No Iterations 28
time step continuity errors : sum local = 3.7802e-10, global = 1.05233e-10, cumulative = -9.00472e-07
GAMG:  Solving for p, Initial residual = 5.07742e-05, Final residual = 8.48897e-07, No Iterations 40
time step continuity errors : sum local = 6.21763e-12, global = 1.77555e-12, cumulative = -9.0047e-07
smoothSolver:  Solving for nuTilda, Initial residual = 3.99824e-05, Final residual = 2.21516e-08, No Iterations 2
ExecutionTime = 154.35 s  ClockTime = 155 s

forceCoeffs forces write:
    Cm    = 0.0907997
    Cd    = 0.181599
    Cl    = 0.0023726
    Cl(f) = 0.091986
    Cl(r) = -0.0896134

Time = 1.53

Courant Number mean: 0.0136702 max: 0.366009
smoothSolver:  Solving for Ux, Initial residual = 0.000762238, Final residual = 1.07105e-09, No Iterations 2
smoothSolver:  Solving for Uy, Initial residual = 0.000641787, Final residual = 5.29221e-10, No Iterations 2
smoothSolver:  Solving for Uz, Initial residual = 0.251113, Final residual = 7.18056e-08, No Iterations 2
GAMG:  Solving for p, Initial residual = 0.0282992, Final residual = 0.00122656, No Iterations 8
time step continuity errors : sum local = 8.94896e-09, global = 3.23033e-09, cumulative = -8.9724e-07
GAMG:  Solving for p, Initial residual = 0.00124681, Final residual = 6.16228e-05, No Iterations 29
time step continuity errors : sum local = 4.51756e-10, global = -1.49462e-10, cumulative = -8.97389e-07
GAMG:  Solving for p, Initial residual = 6.08805e-05, Final residual = 9.57057e-07, No Iterations 42
time step continuity errors : sum local = 7.0318e-12, global = -2.2595e-12, cumulative = -8.97391e-07
smoothSolver:  Solving for nuTilda, Initial residual = 3.91922e-05, Final residual = 2.20867e-08, No Iterations 2
ExecutionTime = 157.35 s  ClockTime = 158 s

forceCoeffs forces write:
    Cm    = 0.0932584
    Cd    = 0.186517
    Cl    = -0.00355141
    Cl(f) = 0.0914827
    Cl(r) = -0.0950341

Time = 1.56

Courant Number mean: 0.0136736 max: 0.366443
smoothSolver:  Solving for Ux, Initial residual = 0.000772207, Final residual = 1.09977e-09, No Iterations 2
smoothSolver:  Solving for Uy, Initial residual = 0.000618178, Final residual = 5.16355e-10, No Iterations 2
smoothSolver:  Solving for Uz, Initial residual = 0.248757, Final residual = 5.77328e-08, No Iterations 2
GAMG:  Solving for p, Initial residual = 0.0282881, Final residual = 0.00112906, No Iterations 6
time step continuity errors : sum local = 8.26685e-09, global = 2.30024e-09, cumulative = -8.95091e-07
GAMG:  Solving for p, Initial residual = 0.0011706, Final residual = 5.43606e-05, No Iterations 28
time step continuity errors : sum local = 3.9125e-10, global = 1.09154e-10, cumulative = -8.94982e-07
GAMG:  Solving for p, Initial residual = 5.413e-05, Final residual = 8.89846e-07, No Iterations 42
time step continuity errors : sum local = 6.32145e-12, global = 1.77928e-12, cumulative = -8.9498e-07
smoothSolver:  Solving for nuTilda, Initial residual = 3.84597e-05, Final residual = 2.17302e-08, No Iterations 2
ExecutionTime = 160.27 s  ClockTime = 161 s

forceCoeffs forces write:
    Cm    = 0.0888331
    Cd    = 0.177666
    Cl    = -0.00298028
    Cl(f) = 0.087343
    Cl(r) = -0.0903233

Time = 1.59

Courant Number mean: 0.0136769 max: 0.366871
smoothSolver:  Solving for Ux, Initial residual = 0.000751002, Final residual = 1.04139e-09, No Iterations 2
smoothSolver:  Solving for Uy, Initial residual = 0.000627498, Final residual = 5.22027e-10, No Iterations 2
smoothSolver:  Solving for Uz, Initial residual = 0.25416, Final residual = 7.16685e-08, No Iterations 2
GAMG:  Solving for p, Initial residual = 0.0286115, Final residual = 0.000960063, No Iterations 6
time step continuity errors : sum local = 6.79677e-09, global = -1.49493e-09, cumulative = -8.96475e-07
GAMG:  Solving for p, Initial residual = 0.000969997, Final residual = 4.17983e-05, No Iterations 28
time step continuity errors : sum local = 3.00103e-10, global = -8.5401e-11, cumulative = -8.9656e-07
GAMG:  Solving for p, Initial residual = 4.09307e-05, Final residual = 9.74867e-07, No Iterations 40
time step continuity errors : sum local = 7.05573e-12, global = -2.07456e-12, cumulative = -8.96562e-07
smoothSolver:  Solving for nuTilda, Initial residual = 3.77826e-05, Final residual = 2.09178e-08, No Iterations 2
ExecutionTime = 163.24 s  ClockTime = 164 s

forceCoeffs forces write:
    Cm    = 0.0920045
    Cd    = 0.184009
    Cl    = -0.00112851
    Cl(f) = 0.0914402
    Cl(r) = -0.0925688

Time = 1.62

Courant Number mean: 0.0136802 max: 0.3673
smoothSolver:  Solving for Ux, Initial residual = 0.000762427, Final residual = 1.07927e-09, No Iterations 2
smoothSolver:  Solving for Uy, Initial residual = 0.00062867, Final residual = 5.24841e-10, No Iterations 2
smoothSolver:  Solving for Uz, Initial residual = 0.240429, Final residual = 6.59546e-08, No Iterations 2
GAMG:  Solving for p, Initial residual = 0.027445, Final residual = 0.00114577, No Iterations 7
time step continuity errors : sum local = 8.27051e-09, global = -2.20231e-09, cumulative = -8.98765e-07
GAMG:  Solving for p, Initial residual = 0.00115614, Final residual = 4.85067e-05, No Iterations 30
time step continuity errors : sum local = 3.53801e-10, global = -9.80434e-11, cumulative = -8.98863e-07
GAMG:  Solving for p, Initial residual = 4.70739e-05, Final residual = 9.3398e-07, No Iterations 40
time step continuity errors : sum local = 6.86615e-12, global = -1.92622e-12, cumulative = -8.98865e-07
smoothSolver:  Solving for nuTilda, Initial residual = 3.71646e-05, Final residual = 2.04157e-08, No Iterations 2
ExecutionTime = 166.22 s  ClockTime = 167 s

forceCoeffs forces write:
    Cm    = 0.0960595
    Cd    = 0.192119
    Cl    = 0.00109882
    Cl(f) = 0.0966089
    Cl(r) = -0.0955101

Time = 1.65

Courant Number mean: 0.0136837 max: 0.367734
smoothSolver:  Solving for Ux, Initial residual = 0.000780175, Final residual = 1.14016e-09, No Iterations 2
smoothSolver:  Solving for Uy, Initial residual = 0.000611138, Final residual = 9.77099e-08, No Iterations 1
smoothSolver:  Solving for Uz, Initial residual = 0.250045, Final residual = 7.65539e-08, No Iterations 2
GAMG:  Solving for p, Initial residual = 0.0269434, Final residual = 0.000986346, No Iterations 6
time step continuity errors : sum local = 7.23034e-09, global = 2.13341e-09, cumulative = -8.96731e-07
GAMG:  Solving for p, Initial residual = 0.00102037, Final residual = 4.48542e-05, No Iterations 30
time step continuity errors : sum local = 3.25431e-10, global = 9.07016e-11, cumulative = -8.96641e-07
GAMG:  Solving for p, Initial residual = 4.46628e-05, Final residual = 9.4517e-07, No Iterations 40
time step continuity errors : sum local = 6.79226e-12, global = 1.92926e-12, cumulative = -8.96639e-07
smoothSolver:  Solving for nuTilda, Initial residual = 3.6605e-05, Final residual = 2.03004e-08, No Iterations 2
ExecutionTime = 169.23 s  ClockTime = 170 s

forceCoeffs forces write:
    Cm    = 0.0926393
    Cd    = 0.185279
    Cl    = -0.00141047
    Cl(f) = 0.091934
    Cl(r) = -0.0933445

Time = 1.68

Courant Number mean: 0.0136872 max: 0.368164
smoothSolver:  Solving for Ux, Initial residual = 0.000762525, Final residual = 1.09433e-09, No Iterations 2
smoothSolver:  Solving for Uy, Initial residual = 0.000623192, Final residual = 5.25118e-10, No Iterations 2
smoothSolver:  Solving for Uz, Initial residual = 0.247466, Final residual = 6.51705e-08, No Iterations 2
GAMG:  Solving for p, Initial residual = 0.0278563, Final residual = 0.00129853, No Iterations 4
time step continuity errors : sum local = 9.29893e-09, global = 2.14465e-09, cumulative = -8.94494e-07
GAMG:  Solving for p, Initial residual = 0.00132685, Final residual = 5.42224e-05, No Iterations 25
time step continuity errors : sum local = 3.85616e-10, global = -1.24197e-10, cumulative = -8.94618e-07
GAMG:  Solving for p, Initial residual = 5.38867e-05, Final residual = 8.28551e-07, No Iterations 42
time step continuity errors : sum local = 5.89475e-12, global = -1.68196e-12, cumulative = -8.9462e-07
smoothSolver:  Solving for nuTilda, Initial residual = 3.60889e-05, Final residual = 2.01808e-08, No Iterations 2
ExecutionTime = 172.02 s  ClockTime = 173 s

forceCoeffs forces write:
    Cm    = 0.0928421
    Cd    = 0.185684
    Cl    = -0.00119569
    Cl(f) = 0.0922442
    Cl(r) = -0.0934399

Time = 1.71

Courant Number mean: 0.0136906 max: 0.368594
smoothSolver:  Solving for Ux, Initial residual = 0.000764493, Final residual = 1.0986e-09, No Iterations 2
smoothSolver:  Solving for Uy, Initial residual = 0.000611111, Final residual = 9.9646e-08, No Iterations 1
smoothSolver:  Solving for Uz, Initial residual = 0.24948, Final residual = 6.89314e-08, No Iterations 2
GAMG:  Solving for p, Initial residual = 0.0280865, Final residual = 0.00134895, No Iterations 4
time step continuity errors : sum local = 9.57204e-09, global = 2.738e-09, cumulative = -8.91882e-07
GAMG:  Solving for p, Initial residual = 0.00138279, Final residual = 6.58217e-05, No Iterations 28
time step continuity errors : sum local = 4.6253e-10, global = 1.32369e-10, cumulative = -8.9175e-07
GAMG:  Solving for p, Initial residual = 6.56895e-05, Final residual = 9.12464e-07, No Iterations 44
time step continuity errors : sum local = 6.33599e-12, global = 1.78884e-12, cumulative = -8.91748e-07
smoothSolver:  Solving for nuTilda, Initial residual = 3.56177e-05, Final residual = 1.99556e-08, No Iterations 2
ExecutionTime = 175.01 s  ClockTime = 176 s

forceCoeffs forces write:
    Cm    = 0.0896239
    Cd    = 0.179248
    Cl    = -0.00209827
    Cl(f) = 0.0885747
    Cl(r) = -0.090673

Time = 1.74

Courant Number mean: 0.0136939 max: 0.369019
smoothSolver:  Solving for Ux, Initial residual = 0.000746148, Final residual = 1.0508e-09, No Iterations 2
smoothSolver:  Solving for Uy, Initial residual = 0.00062159, Final residual = 5.25746e-10, No Iterations 2
smoothSolver:  Solving for Uz, Initial residual = 0.251569, Final residual = 6.88574e-08, No Iterations 2
GAMG:  Solving for p, Initial residual = 0.0285809, Final residual = 0.00112739, No Iterations 5
time step continuity errors : sum local = 7.80255e-09, global = -2.89616e-09, cumulative = -8.94644e-07
GAMG:  Solving for p, Initial residual = 0.001144, Final residual = 5.18132e-05, No Iterations 30
time step continuity errors : sum local = 3.60128e-10, global = -1.03667e-10, cumulative = -8.94748e-07
GAMG:  Solving for p, Initial residual = 5.02255e-05, Final residual = 9.82723e-07, No Iterations 42
time step continuity errors : sum local = 6.9033e-12, global = -2.00609e-12, cumulative = -8.9475e-07
smoothSolver:  Solving for nuTilda, Initial residual = 3.51725e-05, Final residual = 1.99401e-08, No Iterations 2
ExecutionTime = 177.97 s  ClockTime = 179 s

forceCoeffs forces write:
    Cm    = 0.0925882
    Cd    = 0.185176
    Cl    = 0.000733258
    Cl(f) = 0.0929548
    Cl(r) = -0.0922216

Time = 1.77

Courant Number mean: 0.0136974 max: 0.369446
smoothSolver:  Solving for Ux, Initial residual = 0.000757658, Final residual = 1.08987e-09, No Iterations 2
smoothSolver:  Solving for Uy, Initial residual = 0.000610591, Final residual = 5.19036e-10, No Iterations 2
smoothSolver:  Solving for Uz, Initial residual = 0.246784, Final residual = 5.32829e-08, No Iterations 2
GAMG:  Solving for p, Initial residual = 0.0280774, Final residual = 0.00139078, No Iterations 4
time step continuity errors : sum local = 9.74556e-09, global = 1.57491e-09, cumulative = -8.93175e-07
GAMG:  Solving for p, Initial residual = 0.00142236, Final residual = 6.13795e-05, No Iterations 20
time step continuity errors : sum local = 4.25767e-10, global = 9.53167e-11, cumulative = -8.93079e-07
GAMG:  Solving for p, Initial residual = 6.13742e-05, Final residual = 8.81027e-07, No Iterations 38
time step continuity errors : sum local = 6.06455e-12, global = 1.58227e-12, cumulative = -8.93078e-07
smoothSolver:  Solving for nuTilda, Initial residual = 3.47479e-05, Final residual = 1.96416e-08, No Iterations 2
ExecutionTime = 180.55 s  ClockTime = 182 s

forceCoeffs forces write:
    Cm    = 0.0905462
    Cd    = 0.181092
    Cl    = 0.00079492
    Cl(f) = 0.0909436
    Cl(r) = -0.0901487

Time = 1.8

Courant Number mean: 0.0137007 max: 0.369871
smoothSolver:  Solving for Ux, Initial residual = 0.000752107, Final residual = 1.06472e-09, No Iterations 2
smoothSolver:  Solving for Uy, Initial residual = 0.000606122, Final residual = 9.9757e-08, No Iterations 1
smoothSolver:  Solving for Uz, Initial residual = 0.252155, Final residual = 7.0002e-08, No Iterations 2
GAMG:  Solving for p, Initial residual = 0.029214, Final residual = 0.0013393, No Iterations 5
time step continuity errors : sum local = 9.19436e-09, global = -2.6397e-09, cumulative = -8.95718e-07
GAMG:  Solving for p, Initial residual = 0.00135942, Final residual = 6.5327e-05, No Iterations 24
time step continuity errors : sum local = 4.49066e-10, global = -1.3283e-10, cumulative = -8.9585e-07
GAMG:  Solving for p, Initial residual = 6.45084e-05, Final residual = 8.45739e-07, No Iterations 46
time step continuity errors : sum local = 5.84489e-12, global = -1.79704e-12, cumulative = -8.95852e-07
smoothSolver:  Solving for nuTilda, Initial residual = 3.43373e-05, Final residual = 1.94897e-08, No Iterations 2
ExecutionTime = 183.7 s  ClockTime = 185 s

forceCoeffs forces write:
    Cm    = 0.0917489
    Cd    = 0.183498
    Cl    = 0.00395411
    Cl(f) = 0.093726
    Cl(r) = -0.0897719

Time = 1.83

Courant Number mean: 0.0137041 max: 0.370297
smoothSolver:  Solving for Ux, Initial residual = 0.000748622, Final residual = 1.07655e-09, No Iterations 2
smoothSolver:  Solving for Uy, Initial residual = 0.000606739, Final residual = 5.23806e-10, No Iterations 2
smoothSolver:  Solving for Uz, Initial residual = 0.230514, Final residual = 6.19832e-08, No Iterations 2
GAMG:  Solving for p, Initial residual = 0.0284676, Final residual = 0.00141399, No Iterations 5
[...]
smoothSolver:  Solving for Ux, Initial residual = 0.000194726, Final residual = 5.5594e-08, No Iterations 1
smoothSolver:  Solving for Uy, Initial residual = 0.000305663, Final residual = 8.98275e-08, No Iterations 1
smoothSolver:  Solving for Uz, Initial residual = 0.119989, Final residual = 2.8604e-08, No Iterations 2
GAMG:  Solving for p, Initial residual = 0.0991003, Final residual = 0.00378641, No Iterations 6
time step continuity errors : sum local = 6.98617e-09, global = -1.35717e-09, cumulative = -8.3277e-07
GAMG:  Solving for p, Initial residual = 0.00429772, Final residual = 0.000177619, No Iterations 24
time step continuity errors : sum local = 2.96343e-10, global = -7.50152e-11, cumulative = -8.32845e-07
GAMG:  Solving for p, Initial residual = 0.000192013, Final residual = 9.80976e-07, No Iterations 52
time step continuity errors : sum local = 1.55421e-12, global = -4.32959e-13, cumulative = -8.32846e-07
smoothSolver:  Solving for nuTilda, Initial residual = 1.10117e-05, Final residual = 4.21025e-08, No Iterations 1
ExecutionTime = 4139.31 s  ClockTime = 4155 s

forceCoeffs forces write:
    Cm    = 0.32397
    Cd    = 0.64794
    Cl    = 0.0007207
    Cl(f) = 0.32433
    Cl(r) = -0.323609

Time = 38.67

Courant Number mean: 0.0157963 max: 0.600903
smoothSolver:  Solving for Ux, Initial residual = 0.000201262, Final residual = 6.19597e-08, No Iterations 1
smoothSolver:  Solving for Uy, Initial residual = 0.000279621, Final residual = 8.51864e-08, No Iterations 1
smoothSolver:  Solving for Uz, Initial residual = 0.114151, Final residual = 2.60891e-08, No Iterations 2
GAMG:  Solving for p, Initial residual = 0.113253, Final residual = 0.00376298, No Iterations 4
time step continuity errors : sum local = 5.95223e-09, global = -1.02646e-09, cumulative = -8.33872e-07
GAMG:  Solving for p, Initial residual = 0.0038882, Final residual = 0.00016819, No Iterations 21
time step continuity errors : sum local = 2.65237e-10, global = 7.92056e-11, cumulative = -8.33793e-07
GAMG:  Solving for p, Initial residual = 0.000173227, Final residual = 8.73427e-07, No Iterations 52
time step continuity errors : sum local = 1.38311e-12, global = 3.96771e-13, cumulative = -8.33793e-07
smoothSolver:  Solving for nuTilda, Initial residual = 1.09903e-05, Final residual = 4.19061e-08, No Iterations 1
ExecutionTime = 4142.39 s  ClockTime = 4158 s

forceCoeffs forces write:
    Cm    = 0.323469
    Cd    = 0.646935
    Cl    = 0.00137254
    Cl(f) = 0.324155
    Cl(r) = -0.322783

Time = 38.7

Courant Number mean: 0.0157972 max: 0.600925
smoothSolver:  Solving for Ux, Initial residual = 0.000200653, Final residual = 6.16467e-08, No Iterations 1
smoothSolver:  Solving for Uy, Initial residual = 0.000286342, Final residual = 8.69263e-08, No Iterations 1
smoothSolver:  Solving for Uz, Initial residual = 0.114397, Final residual = 2.36513e-08, No Iterations 2
GAMG:  Solving for p, Initial residual = 0.112341, Final residual = 0.00369649, No Iterations 6
time step continuity errors : sum local = 5.86069e-09, global = 9.80737e-10, cumulative = -8.32812e-07
GAMG:  Solving for p, Initial residual = 0.00364357, Final residual = 0.000176204, No Iterations 24
time step continuity errors : sum local = 2.93235e-10, global = 8.41877e-11, cumulative = -8.32728e-07
GAMG:  Solving for p, Initial residual = 0.000177229, Final residual = 9.22544e-07, No Iterations 56
time step continuity errors : sum local = 1.56452e-12, global = 4.69398e-13, cumulative = -8.32727e-07
smoothSolver:  Solving for nuTilda, Initial residual = 1.09736e-05, Final residual = 4.17139e-08, No Iterations 1
ExecutionTime = 4145.51 s  ClockTime = 4161 s

forceCoeffs forces write:
    Cm    = 0.321571
    Cd    = 0.643141
    Cl    = -0.000481421
    Cl(f) = 0.32133
    Cl(r) = -0.321812

Time = 38.73

Courant Number mean: 0.015798 max: 0.600945
smoothSolver:  Solving for Ux, Initial residual = 0.000197836, Final residual = 5.91503e-08, No Iterations 1
smoothSolver:  Solving for Uy, Initial residual = 0.000288647, Final residual = 8.61246e-08, No Iterations 1
smoothSolver:  Solving for Uz, Initial residual = 0.12012, Final residual = 2.59157e-08, No Iterations 2
GAMG:  Solving for p, Initial residual = 0.105828, Final residual = 0.00456621, No Iterations 10
time step continuity errors : sum local = 7.7458e-09, global = -1.04446e-09, cumulative = -8.33772e-07
GAMG:  Solving for p, Initial residual = 0.00456343, Final residual = 0.000189589, No Iterations 24
time step continuity errors : sum local = 3.30851e-10, global = -8.35603e-11, cumulative = -8.33855e-07
GAMG:  Solving for p, Initial residual = 0.000187582, Final residual = 9.89041e-07, No Iterations 50
time step continuity errors : sum local = 1.78192e-12, global = -4.87466e-13, cumulative = -8.33856e-07
smoothSolver:  Solving for nuTilda, Initial residual = 1.09567e-05, Final residual = 4.15287e-08, No Iterations 1
ExecutionTime = 4148.66 s  ClockTime = 4165 s

forceCoeffs forces write:
    Cm    = 0.328478
    Cd    = 0.656955
    Cl    = -0.00225122
    Cl(f) = 0.327352
    Cl(r) = -0.329604

Time = 38.76

Courant Number mean: 0.0157992 max: 0.600971
smoothSolver:  Solving for Ux, Initial residual = 0.000223379, Final residual = 7.15136e-08, No Iterations 1
smoothSolver:  Solving for Uy, Initial residual = 0.000278557, Final residual = 8.71539e-08, No Iterations 1
smoothSolver:  Solving for Uz, Initial residual = 0.115693, Final residual = 2.42068e-08, No Iterations 2
GAMG:  Solving for p, Initial residual = 0.0984058, Final residual = 0.00431962, No Iterations 6
time step continuity errors : sum local = 7.79931e-09, global = 1.56171e-09, cumulative = -8.32294e-07
GAMG:  Solving for p, Initial residual = 0.00463835, Final residual = 0.000214575, No Iterations 24
time step continuity errors : sum local = 3.68591e-10, global = 1.23654e-10, cumulative = -8.3217e-07
GAMG:  Solving for p, Initial residual = 0.00022174, Final residual = 9.56479e-07, No Iterations 57
time step continuity errors : sum local = 1.61218e-12, global = -5.55189e-13, cumulative = -8.32171e-07
smoothSolver:  Solving for nuTilda, Initial residual = 1.09381e-05, Final residual = 4.13505e-08, No Iterations 1
ExecutionTime = 4151.81 s  ClockTime = 4168 s

forceCoeffs forces write:
    Cm    = 0.326753
    Cd    = 0.653505
    Cl    = -0.00100463
    Cl(f) = 0.326251
    Cl(r) = -0.327255

Time = 38.79

Courant Number mean: 0.0158003 max: 0.600997
smoothSolver:  Solving for Ux, Initial residual = 0.000219058, Final residual = 6.97037e-08, No Iterations 1
smoothSolver:  Solving for Uy, Initial residual = 0.000268773, Final residual = 8.38027e-08, No Iterations 1
smoothSolver:  Solving for Uz, Initial residual = 0.126383, Final residual = 2.85786e-08, No Iterations 2
GAMG:  Solving for p, Initial residual = 0.105932, Final residual = 0.00405777, No Iterations 12
time step continuity errors : sum local = 6.8358e-09, global = 1.09907e-09, cumulative = -8.31072e-07
GAMG:  Solving for p, Initial residual = 0.00397211, Final residual = 0.000186534, No Iterations 28
time step continuity errors : sum local = 3.32646e-10, global = 9.21565e-11, cumulative = -8.3098e-07
GAMG:  Solving for p, Initial residual = 0.000184686, Final residual = 8.41922e-07, No Iterations 56
time step continuity errors : sum local = 1.54564e-12, global = 4.41287e-13, cumulative = -8.30979e-07
smoothSolver:  Solving for nuTilda, Initial residual = 1.09172e-05, Final residual = 4.1164e-08, No Iterations 1
ExecutionTime = 4155.18 s  ClockTime = 4171 s

forceCoeffs forces write:
    Cm    = 0.318508
    Cd    = 0.637014
    Cl    = -0.00196921
    Cl(f) = 0.317523
    Cl(r) = -0.319492

Time = 38.82

Courant Number mean: 0.0158011 max: 0.601016
smoothSolver:  Solving for Ux, Initial residual = 0.000194084, Final residual = 5.55046e-08, No Iterations 1
smoothSolver:  Solving for Uy, Initial residual = 0.000304803, Final residual = 8.99404e-08, No Iterations 1
smoothSolver:  Solving for Uz, Initial residual = 0.116949, Final residual = 2.78379e-08, No Iterations 2
GAMG:  Solving for p, Initial residual = 0.0963878, Final residual = 0.00424373, No Iterations 12
time step continuity errors : sum local = 7.79162e-09, global = -1.39463e-09, cumulative = -8.32374e-07
GAMG:  Solving for p, Initial residual = 0.00442324, Final residual = 0.000206636, No Iterations 28
time step continuity errors : sum local = 3.74093e-10, global = -1.02273e-10, cumulative = -8.32476e-07
GAMG:  Solving for p, Initial residual = 0.00020377, Final residual = 9.17352e-07, No Iterations 56
time step continuity errors : sum local = 1.71271e-12, global = -4.88963e-13, cumulative = -8.32477e-07
smoothSolver:  Solving for nuTilda, Initial residual = 1.08954e-05, Final residual = 4.09882e-08, No Iterations 1
ExecutionTime = 4159 s  ClockTime = 4175 s

forceCoeffs forces write:
    Cm    = 0.3298
    Cd    = 0.659599
    Cl    = -1.18141e-05
    Cl(f) = 0.329794
    Cl(r) = -0.329806

Time = 38.85

Courant Number mean: 0.0158023 max: 0.601043
smoothSolver:  Solving for Ux, Initial residual = 0.000229106, Final residual = 7.43846e-08, No Iterations 1
smoothSolver:  Solving for Uy, Initial residual = 0.000261466, Final residual = 8.33049e-08, No Iterations 1
smoothSolver:  Solving for Uz, Initial residual = 0.115446, Final residual = 2.51629e-08, No Iterations 2
GAMG:  Solving for p, Initial residual = 0.0948032, Final residual = 0.00412506, No Iterations 8
time step continuity errors : sum local = 7.71406e-09, global = 1.48652e-09, cumulative = -8.3099e-07
GAMG:  Solving for p, Initial residual = 0.00475636, Final residual = 0.000222694, No Iterations 26
time step continuity errors : sum local = 3.71438e-10, global = 9.79295e-11, cumulative = -8.30892e-07
GAMG:  Solving for p, Initial residual = 0.000238302, Final residual = 8.85216e-07, No Iterations 56
time step continuity errors : sum local = 1.40689e-12, global = 3.93619e-13, cumulative = -8.30892e-07
smoothSolver:  Solving for nuTilda, Initial residual = 1.08719e-05, Final residual = 4.08e-08, No Iterations 1
ExecutionTime = 4162.23 s  ClockTime = 4178 s

forceCoeffs forces write:
    Cm    = 0.324009
    Cd    = 0.648017
    Cl    = 0.00034458
    Cl(f) = 0.324181
    Cl(r) = -0.323836

Time = 38.88

Courant Number mean: 0.0158033 max: 0.601067
smoothSolver:  Solving for Ux, Initial residual = 0.000206406, Final residual = 6.35963e-08, No Iterations 1
smoothSolver:  Solving for Uy, Initial residual = 0.00029004, Final residual = 8.93984e-08, No Iterations 1
smoothSolver:  Solving for Uz, Initial residual = 0.125084, Final residual = 3.14737e-08, No Iterations 2
GAMG:  Solving for p, Initial residual = 0.111659, Final residual = 0.00515463, No Iterations 6
time step continuity errors : sum local = 8.17474e-09, global = -2.74663e-09, cumulative = -8.33638e-07
GAMG:  Solving for p, Initial residual = 0.00531978, Final residual = 0.000230062, No Iterations 24
time step continuity errors : sum local = 3.61067e-10, global = -1.27244e-10, cumulative = -8.33766e-07
GAMG:  Solving for p, Initial residual = 0.00023182, Final residual = 9.47951e-07, No Iterations 56
time step continuity errors : sum local = 1.4877e-12, global = -4.25384e-13, cumulative = -8.33766e-07
smoothSolver:  Solving for nuTilda, Initial residual = 1.08479e-05, Final residual = 4.06145e-08, No Iterations 1
ExecutionTime = 4165.35 s  ClockTime = 4181 s

forceCoeffs forces write:
    Cm    = 0.324058
    Cd    = 0.648114
    Cl    = 0.00166755
    Cl(f) = 0.324891
    Cl(r) = -0.323224

Time = 38.91

Courant Number mean: 0.0158043 max: 0.60109
smoothSolver:  Solving for Ux, Initial residual = 0.000207039, Final residual = 6.43065e-08, No Iterations 1
smoothSolver:  Solving for Uy, Initial residual = 0.00028138, Final residual = 8.38816e-08, No Iterations 1
smoothSolver:  Solving for Uz, Initial residual = 0.109262, Final residual = 2.56482e-08, No Iterations 2
GAMG:  Solving for p, Initial residual = 0.112609, Final residual = 0.00460997, No Iterations 6
time step continuity errors : sum local = 7.24018e-09, global = -2.38027e-09, cumulative = -8.36146e-07
GAMG:  Solving for p, Initial residual = 0.00469164, Final residual = 0.000195598, No Iterations 29
time step continuity errors : sum local = 3.09373e-10, global = 9.59644e-11, cumulative = -8.3605e-07
GAMG:  Solving for p, Initial residual = 0.000200763, Final residual = 9.51761e-07, No Iterations 56
time step continuity errors : sum local = 1.49859e-12, global = 4.29734e-13, cumulative = -8.3605e-07
smoothSolver:  Solving for nuTilda, Initial residual = 1.08255e-05, Final residual = 4.04341e-08, No Iterations 1
ExecutionTime = 4168.68 s  ClockTime = 4185 s

forceCoeffs forces write:
    Cm    = 0.323217
    Cd    = 0.64643
    Cl    = -0.000764597
    Cl(f) = 0.322834
    Cl(r) = -0.323599

Time = 38.94

Courant Number mean: 0.0158053 max: 0.601112
smoothSolver:  Solving for Ux, Initial residual = 0.000203221, Final residual = 6.18678e-08, No Iterations 1
smoothSolver:  Solving for Uy, Initial residual = 0.000296243, Final residual = 9.31325e-08, No Iterations 1
smoothSolver:  Solving for Uz, Initial residual = 0.117309, Final residual = 2.96631e-08, No Iterations 2
GAMG:  Solving for p, Initial residual = 0.112988, Final residual = 0.00514977, No Iterations 6
time step continuity errors : sum local = 8.10145e-09, global = 2.22838e-09, cumulative = -8.33822e-07
GAMG:  Solving for p, Initial residual = 0.00514818, Final residual = 0.000250074, No Iterations 24
time step continuity errors : sum local = 4.01323e-10, global = 1.36111e-10, cumulative = -8.33686e-07
GAMG:  Solving for p, Initial residual = 0.000247724, Final residual = 9.69704e-07, No Iterations 53
time step continuity errors : sum local = 1.57865e-12, global = -5.08855e-13, cumulative = -8.33686e-07
smoothSolver:  Solving for nuTilda, Initial residual = 1.08064e-05, Final residual = 4.02504e-08, No Iterations 1
ExecutionTime = 4171.92 s  ClockTime = 4188 s

forceCoeffs forces write:
    Cm    = 0.322463
    Cd    = 0.644926
    Cl    = -0.00159888
    Cl(f) = 0.321663
    Cl(r) = -0.323262

Time = 38.97

Courant Number mean: 0.0158062 max: 0.601133
smoothSolver:  Solving for Ux, Initial residual = 0.000199796, Final residual = 6.10556e-08, No Iterations 1
smoothSolver:  Solving for Uy, Initial residual = 0.000286177, Final residual = 8.6318e-08, No Iterations 1
smoothSolver:  Solving for Uz, Initial residual = 0.117067, Final residual = 2.5881e-08, No Iterations 2
GAMG:  Solving for p, Initial residual = 0.107723, Final residual = 0.00432319, No Iterations 6
time step continuity errors : sum local = 7.04467e-09, global = 2.10756e-09, cumulative = -8.31578e-07
GAMG:  Solving for p, Initial residual = 0.00435732, Final residual = 0.000197238, No Iterations 31
time step continuity errors : sum local = 3.27176e-10, global = -1.2061e-10, cumulative = -8.31699e-07
GAMG:  Solving for p, Initial residual = 0.000199639, Final residual = 8.97297e-07, No Iterations 58
time step continuity errors : sum local = 1.5016e-12, global = -5.14238e-13, cumulative = -8.317e-07
smoothSolver:  Solving for nuTilda, Initial residual = 1.07864e-05, Final residual = 4.00548e-08, No Iterations 1
ExecutionTime = 4175.27 s  ClockTime = 4191 s

forceCoeffs forces write:
    Cm    = 0.321407
    Cd    = 0.642811
    Cl    = 0.00328715
    Cl(f) = 0.323051
    Cl(r) = -0.319763

Time = 39

Courant Number mean: 0.015807 max: 0.601152
smoothSolver:  Solving for Ux, Initial residual = 0.000198064, Final residual = 5.94817e-08, No Iterations 1
smoothSolver:  Solving for Uy, Initial residual = 0.000298019, Final residual = 8.85055e-08, No Iterations 1
smoothSolver:  Solving for Uz, Initial residual = 0.114643, Final residual = 2.50394e-08, No Iterations 2
GAMG:  Solving for p, Initial residual = 0.108052, Final residual = 0.00461536, No Iterations 5
time step continuity errors : sum local = 7.71707e-09, global = -2.47817e-09, cumulative = -8.34178e-07
GAMG:  Solving for p, Initial residual = 0.00454795, Final residual = 0.0002118, No Iterations 25
time step continuity errors : sum local = 3.68945e-10, global = 1.07865e-10, cumulative = -8.3407e-07
GAMG:  Solving for p, Initial residual = 0.000215092, Final residual = 9.84934e-07, No Iterations 58
time step continuity errors : sum local = 1.72864e-12, global = 5.13847e-13, cumulative = -8.34069e-07
smoothSolver:  Solving for nuTilda, Initial residual = 1.07643e-05, Final residual = 3.98819e-08, No Iterations 1
ExecutionTime = 4178.52 s  ClockTime = 4194 s

forceCoeffs forces write:
    Cm    = 0.319521
    Cd    = 0.639042
    Cl    = 0.00060224
    Cl(f) = 0.319823
    Cl(r) = -0.31922

Time = 39.03

Courant Number mean: 0.0158077 max: 0.601169
smoothSolver:  Solving for Ux, Initial residual = 0.000193746, Final residual = 5.59515e-08, No Iterations 1
smoothSolver:  Solving for Uy, Initial residual = 0.000299473, Final residual = 8.93575e-08, No Iterations 1
smoothSolver:  Solving for Uz, Initial residual = 0.113892, Final residual = 2.64412e-08, No Iterations 2
GAMG:  Solving for p, Initial residual = 0.101728, Final residual = 0.00498133, No Iterations 4
time step continuity errors : sum local = 8.76062e-09, global = 1.04414e-09, cumulative = -8.33025e-07
GAMG:  Solving for p, Initial residual = 0.00497604, Final residual = 0.000215611, No Iterations 26
time step continuity errors : sum local = 3.86676e-10, global = 1.2279e-10, cumulative = -8.32902e-07
GAMG:  Solving for p, Initial residual = 0.000217284, Final residual = 8.65043e-07, No Iterations 60
time step continuity errors : sum local = 1.56279e-12, global = 4.64757e-13, cumulative = -8.32902e-07
smoothSolver:  Solving for nuTilda, Initial residual = 1.07408e-05, Final residual = 3.96806e-08, No Iterations 1
ExecutionTime = 4181.75 s  ClockTime = 4198 s

forceCoeffs forces write:
    Cm    = 0.318331
    Cd    = 0.636661
    Cl    = -0.0011745
    Cl(f) = 0.317744
    Cl(r) = -0.318918

Time = 39.06

Courant Number mean: 0.0158084 max: 0.601183
smoothSolver:  Solving for Ux, Initial residual = 0.000195753, Final residual = 5.45352e-08, No Iterations 1
smoothSolver:  Solving for Uy, Initial residual = 0.000311129, Final residual = 9.28147e-08, No Iterations 1
smoothSolver:  Solving for Uz, Initial residual = 0.117615, Final residual = 2.70043e-08, No Iterations 2
GAMG:  Solving for p, Initial residual = 0.100855, Final residual = 0.00495805, No Iterations 6
time step continuity errors : sum local = 8.96715e-09, global = -2.66543e-09, cumulative = -8.35567e-07
GAMG:  Solving for p, Initial residual = 0.00538277, Final residual = 0.000242496, No Iterations 30
time step continuity errors : sum local = 4.10324e-10, global = -1.16547e-10, cumulative = -8.35684e-07
GAMG:  Solving for p, Initial residual = 0.000260223, Final residual = 8.61446e-07, No Iterations 60
time step continuity errors : sum local = 1.37165e-12, global = -3.94435e-13, cumulative = -8.35684e-07
smoothSolver:  Solving for nuTilda, Initial residual = 1.07162e-05, Final residual = 3.94866e-08, No Iterations 1
ExecutionTime = 4185.12 s  ClockTime = 4201 s

forceCoeffs forces write:
    Cm    = 0.322858
    Cd    = 0.645716
    Cl    = 0.000885976
    Cl(f) = 0.323301
    Cl(r) = -0.322415

Time = 39.09

Courant Number mean: 0.0158092 max: 0.601201
smoothSolver:  Solving for Ux, Initial residual = 0.00019933, Final residual = 6.13349e-08, No Iterations 1
smoothSolver:  Solving for Uy, Initial residual = 0.000287384, Final residual = 8.54407e-08, No Iterations 1
smoothSolver:  Solving for Uz, Initial residual = 0.118472, Final residual = 2.73307e-08, No Iterations 2
GAMG:  Solving for p, Initial residual = 0.117939, Final residual = 0.00508311, No Iterations 4
time step continuity errors : sum local = 8.08604e-09, global = 1.26308e-09, cumulative = -8.34421e-07
GAMG:  Solving for p, Initial residual = 0.00505873, Final residual = 0.000252879, No Iterations 17
time step continuity errors : sum local = 4.12113e-10, global = -1.49513e-10, cumulative = -8.34571e-07
