/*---------------------------------------------------------------------------*\
| =========                 |                                                 |
| \\      /  F ield         | OpenFOAM: The Open Source CFD Toolbox           |
|  \\    /   O peration     | Version:  4.1                                   |
|   \\  /    A nd           | Web:      www.OpenFOAM.org                      |
|    \\/     M anipulation  |                                                 |
\*---------------------------------------------------------------------------*/
Build  : 4.1
Exec   : pisoFoam -parallel
Date   : Jul 05 2018
Time   : 13:37:02
Host   : "cp1607"
PID    : 6576
Case   : /scratch/superran/lengthEffect/workingFolder/case_z_80Layer
nProcs : 24
Slaves : 
23
(
"cp1607.6577"
"cp1607.6578"
"cp1607.6579"
"cp1607.6580"
"cp1607.6581"
"cp1607.6582"
"cp1607.6583"
"cp1607.6584"
"cp1607.6585"
"cp1607.6586"
"cp1607.6610"
"cp1607.6615"
"cp1607.6626"
"cp1607.6659"
"cp1607.6672"
"cp1607.6703"
"cp1607.6739"
"cp1607.6769"
"cp1607.6770"
"cp1607.6791"
"cp1607.6800"
"cp1607.6890"
"cp1607.6915"
)

Pstream initialized with:
    floatTransfer      : 0
    nProcsSimpleSum    : 0
    commsType          : nonBlocking
    polling iterations : 0
sigFpe : Enabling floating point exception trapping (FOAM_SIGFPE).
fileModificationChecking : Monitoring run-time modified files using timeStampMaster
allowSystemOperations : Allowing user-supplied system call operations

// * * * * * * * * * * * * * * * * * * * * * * * * * * * * * * * * * * * * * //
Create time

Create mesh for time = 0


PISO: Operating solver in PISO mode

Reading field p

Reading field U

Reading/calculating face flux field phi

Selecting incompressible transport model Newtonian
Selecting turbulence model type LES
Selecting LES turbulence model SpalartAllmarasDDES
Selecting LES delta type cubeRootVol
Selecting patchDistMethod meshWave
SpalartAllmarasDESCoeffs
{
    Ce              1.048;
    sigmaNut        0.66666;
    kappa           0.41;
    Cb1             0.1355;
    Cb2             0.622;
    Cw2             0.3;
    Cw3             2;
    Cv1             7.1;
    Cs              0.3;
    CDES            0.65;
    ck              0.07;
}

No MRF models present

No finite volume options present


Starting time loop

forces forces:
    Not including porosity effects
forceCoeffs forces:
    Not including porosity effects
Time = 0.03

Courant Number mean: 0.000100376 max: 0.00377224
smoothSolver:  Solving for Ux, Initial residual = 1, Final residual = 1.31069e-10, No Iterations 2
smoothSolver:  Solving for Uy, Initial residual = 1, Final residual = 1.26369e-10, No Iterations 2
smoothSolver:  Solving for Uz, Initial residual = 1, Final residual = 1.29177e-10, No Iterations 2
GAMG:  Solving for p, Initial residual = 1, Final residual = 0.0409885, No Iterations 32
time step continuity errors : sum local = 8.22852e-06, global = -2.15307e-06, cumulative = -2.15307e-06
GAMG:  Solving for p, Initial residual = 0.00052676, Final residual = 2.58857e-05, No Iterations 24
time step continuity errors : sum local = 4.00471e-07, global = -1.09357e-07, cumulative = -2.26243e-06
GAMG:  Solving for p, Initial residual = 2.55438e-05, Final residual = 8.18086e-07, No Iterations 28
time step continuity errors : sum local = 1.27145e-08, global = -3.58758e-09, cumulative = -2.26602e-06
smoothSolver:  Solving for nuTilda, Initial residual = 1, Final residual = 2.01316e-08, No Iterations 8
bounding nuTilda, min: -9.00018e-17 max: 8.77786e-07 average: 2.78191e-10
ExecutionTime = 6.09 s  ClockTime = 7 s

forceCoeffs forces write:
    Cm    = 189.176
    Cd    = 378.352
    Cl    = 0.00191093
    Cl(f) = 189.177
    Cl(r) = -189.175

Time = 0.06

Courant Number mean: 0.0134334 max: 0.356712
smoothSolver:  Solving for Ux, Initial residual = 0.733296, Final residual = 3.73625e-08, No Iterations 3
smoothSolver:  Solving for Uy, Initial residual = 0.333022, Final residual = 1.06663e-08, No Iterations 3
smoothSolver:  Solving for Uz, Initial residual = 0.332769, Final residual = 5.99196e-09, No Iterations 3
GAMG:  Solving for p, Initial residual = 0.0203403, Final residual = 0.000797405, No Iterations 32
time step continuity errors : sum local = 8.19806e-06, global = 2.14656e-06, cumulative = -1.19465e-07
GAMG:  Solving for p, Initial residual = 0.00167628, Final residual = 8.13506e-05, No Iterations 22
time step continuity errors : sum local = 4.15136e-07, global = 1.1581e-07, cumulative = -3.65422e-09
GAMG:  Solving for p, Initial residual = 8.35292e-05, Final residual = 9.78281e-07, No Iterations 36
time step continuity errors : sum local = 5.02998e-09, global = 1.45949e-09, cumulative = -2.19473e-09
smoothSolver:  Solving for nuTilda, Initial residual = 0.000625313, Final residual = 1.65994e-08, No Iterations 3
bounding nuTilda, min: -1.53186e-27 max: 8.1112e-07 average: 5.35967e-10
ExecutionTime = 11.1 s  ClockTime = 12 s

forceCoeffs forces write:
    Cm    = -93.9155
    Cd    = -187.831
    Cl    = -0.00203126
    Cl(f) = -93.9165
    Cl(r) = 93.9145

Time = 0.09

Courant Number mean: 0.0134522 max: 0.35697
smoothSolver:  Solving for Ux, Initial residual = 0.472855, Final residual = 2.44035e-08, No Iterations 3
smoothSolver:  Solving for Uy, Initial residual = 0.207789, Final residual = 6.47762e-09, No Iterations 3
smoothSolver:  Solving for Uz, Initial residual = 0.3991, Final residual = 7.42487e-09, No Iterations 3
GAMG:  Solving for p, Initial residual = 0.0142849, Final residual = 0.000690137, No Iterations 30
time step continuity errors : sum local = 3.51367e-06, global = -9.1501e-07, cumulative = -9.17204e-07
GAMG:  Solving for p, Initial residual = 0.0874079, Final residual = 0.00358915, No Iterations 24
time step continuity errors : sum local = 1.4611e-07, global = -4.0606e-08, cumulative = -9.5781e-07
GAMG:  Solving for p, Initial residual = 0.00277892, Final residual = 8.58519e-07, No Iterations 66
time step continuity errors : sum local = 4.62065e-11, global = -1.34044e-11, cumulative = -9.57824e-07
smoothSolver:  Solving for nuTilda, Initial residual = 0.000301467, Final residual = 9.04651e-08, No Iterations 2
bounding nuTilda, min: -3.70053e-41 max: 7.4953e-07 average: 7.7533e-10
ExecutionTime = 16.52 s  ClockTime = 17 s

forceCoeffs forces write:
    Cm    = 0.398743
    Cd    = 0.797455
    Cl    = 6.81954e-05
    Cl(f) = 0.398777
    Cl(r) = -0.398709

Time = 0.12

Courant Number mean: 0.0134676 max: 0.35676
smoothSolver:  Solving for Ux, Initial residual = 0.00526067, Final residual = 6.74421e-09, No Iterations 2
smoothSolver:  Solving for Uy, Initial residual = 0.00428648, Final residual = 3.86074e-09, No Iterations 2
smoothSolver:  Solving for Uz, Initial residual = 0.361223, Final residual = 2.77358e-09, No Iterations 3
GAMG:  Solving for p, Initial residual = 0.101956, Final residual = 0.00456062, No Iterations 8
time step continuity errors : sum local = 2.29558e-07, global = 4.38633e-08, cumulative = -9.1396e-07
GAMG:  Solving for p, Initial residual = 0.00564982, Final residual = 0.000251206, No Iterations 18
time step continuity errors : sum local = 1.02741e-08, global = 2.36094e-09, cumulative = -9.11599e-07
GAMG:  Solving for p, Initial residual = 0.000257255, Final residual = 9.10654e-07, No Iterations 42
time step continuity errors : sum local = 3.61627e-11, global = 9.27096e-12, cumulative = -9.1159e-07
smoothSolver:  Solving for nuTilda, Initial residual = 0.000199101, Final residual = 5.85581e-08, No Iterations 2
bounding nuTilda, min: -8.33673e-152 max: 6.93494e-07 average: 1.00394e-09
ExecutionTime = 20.22 s  ClockTime = 21 s

forceCoeffs forces write:
    Cm    = 0.31125
    Cd    = 0.622507
    Cl    = -5.81481e-05
    Cl(f) = 0.311221
    Cl(r) = -0.311279

Time = 0.15

Courant Number mean: 0.0134793 max: 0.356217
smoothSolver:  Solving for Ux, Initial residual = 0.00380088, Final residual = 4.90936e-09, No Iterations 2
smoothSolver:  Solving for Uy, Initial residual = 0.00308385, Final residual = 3.1687e-09, No Iterations 2
smoothSolver:  Solving for Uz, Initial residual = 0.302339, Final residual = 8.92912e-10, No Iterations 3
GAMG:  Solving for p, Initial residual = 0.083789, Final residual = 0.00361042, No Iterations 8
time step continuity errors : sum local = 1.33489e-07, global = 2.61937e-08, cumulative = -8.85397e-07
GAMG:  Solving for p, Initial residual = 0.00422158, Final residual = 0.000187565, No Iterations 18
time step continuity errors : sum local = 5.97493e-09, global = 1.38013e-09, cumulative = -8.84016e-07
GAMG:  Solving for p, Initial residual = 0.000190057, Final residual = 8.70387e-07, No Iterations 40
time step continuity errors : sum local = 2.72178e-11, global = 6.93333e-12, cumulative = -8.84009e-07
smoothSolver:  Solving for nuTilda, Initial residual = 0.000151881, Final residual = 4.57764e-08, No Iterations 2
ExecutionTime = 23.77 s  ClockTime = 24 s

forceCoeffs forces write:
    Cm    = 0.264735
    Cd    = 0.529468
    Cl    = -0.00128064
    Cl(f) = 0.264094
    Cl(r) = -0.265375

Time = 0.18

Courant Number mean: 0.0134883 max: 0.355286
smoothSolver:  Solving for Ux, Initial residual = 0.00289348, Final residual = 3.80988e-09, No Iterations 2
smoothSolver:  Solving for Uy, Initial residual = 0.00233445, Final residual = 2.69657e-09, No Iterations 2
smoothSolver:  Solving for Uz, Initial residual = 0.310253, Final residual = 6.73153e-10, No Iterations 3
GAMG:  Solving for p, Initial residual = 0.0671751, Final residual = 0.00264618, No Iterations 8
time step continuity errors : sum local = 7.82367e-08, global = 1.57351e-08, cumulative = -8.68274e-07
GAMG:  Solving for p, Initial residual = 0.00296964, Final residual = 0.000134485, No Iterations 18
time step continuity errors : sum local = 3.58236e-09, global = 8.53371e-10, cumulative = -8.67421e-07
GAMG:  Solving for p, Initial residual = 0.000135435, Final residual = 9.06622e-07, No Iterations 38
time step continuity errors : sum local = 2.39058e-11, global = 6.3674e-12, cumulative = -8.67415e-07
smoothSolver:  Solving for nuTilda, Initial residual = 0.0001262, Final residual = 3.721e-08, No Iterations 2
ExecutionTime = 27.51 s  ClockTime = 28 s

forceCoeffs forces write:
    Cm    = 0.237974
    Cd    = 0.475948
    Cl    = 0.00238688
    Cl(f) = 0.239168
    Cl(r) = -0.236781

Time = 0.21

Courant Number mean: 0.0134959 max: 0.355155
smoothSolver:  Solving for Ux, Initial residual = 0.00233719, Final residual = 3.1804e-09, No Iterations 2
smoothSolver:  Solving for Uy, Initial residual = 0.00189781, Final residual = 2.40277e-09, No Iterations 2
smoothSolver:  Solving for Uz, Initial residual = 0.284148, Final residual = 4.75715e-10, No Iterations 3
GAMG:  Solving for p, Initial residual = 0.0536832, Final residual = 0.00223219, No Iterations 8
time step continuity errors : sum local = 5.63113e-08, global = 1.14443e-08, cumulative = -8.5597e-07
GAMG:  Solving for p, Initial residual = 0.00246695, Final residual = 0.000101981, No Iterations 20
time step continuity errors : sum local = 2.35484e-09, global = 5.71488e-10, cumulative = -8.55399e-07
GAMG:  Solving for p, Initial residual = 0.000102499, Final residual = 9.42723e-07, No Iterations 36
time step continuity errors : sum local = 2.14803e-11, global = 5.67741e-12, cumulative = -8.55393e-07
smoothSolver:  Solving for nuTilda, Initial residual = 0.000110791, Final residual = 3.42345e-08, No Iterations 2
ExecutionTime = 30.93 s  ClockTime = 32 s

forceCoeffs forces write:
    Cm    = 0.210576
    Cd    = 0.421152
    Cl    = 0.00079268
    Cl(f) = 0.210972
    Cl(r) = -0.21018

Time = 0.24

Courant Number mean: 0.0135021 max: 0.355424
smoothSolver:  Solving for Ux, Initial residual = 0.00194703, Final residual = 2.71968e-09, No Iterations 2
smoothSolver:  Solving for Uy, Initial residual = 0.0016222, Final residual = 2.20722e-09, No Iterations 2
smoothSolver:  Solving for Uz, Initial residual = 0.273885, Final residual = 7.51837e-08, No Iterations 2
GAMG:  Solving for p, Initial residual = 0.0443283, Final residual = 0.00216739, No Iterations 7
time step continuity errors : sum local = 4.75785e-08, global = -1.08241e-08, cumulative = -8.66217e-07
GAMG:  Solving for p, Initial residual = 0.0023301, Final residual = 9.96687e-05, No Iterations 17
time step continuity errors : sum local = 2.05852e-09, global = 4.89783e-10, cumulative = -8.65728e-07
GAMG:  Solving for p, Initial residual = 0.000100676, Final residual = 8.22801e-07, No Iterations 36
time step continuity errors : sum local = 1.69412e-11, global = 4.38655e-12, cumulative = -8.65723e-07
smoothSolver:  Solving for nuTilda, Initial residual = 0.000101078, Final residual = 3.10424e-08, No Iterations 2
ExecutionTime = 34.24 s  ClockTime = 35 s

forceCoeffs forces write:
    Cm    = 0.19779
    Cd    = 0.395579
    Cl    = -0.000357358
    Cl(f) = 0.197611
    Cl(r) = -0.197968

Time = 0.27

Courant Number mean: 0.0135077 max: 0.35565
smoothSolver:  Solving for Ux, Initial residual = 0.00171039, Final residual = 2.47977e-09, No Iterations 2
smoothSolver:  Solving for Uy, Initial residual = 0.00143931, Final residual = 2.06366e-09, No Iterations 2
smoothSolver:  Solving for Uz, Initial residual = 0.288127, Final residual = 8.72308e-08, No Iterations 2
GAMG:  Solving for p, Initial residual = 0.0376333, Final residual = 0.00186808, No Iterations 7
time step continuity errors : sum local = 3.72539e-08, global = -8.66325e-09, cumulative = -8.74386e-07
GAMG:  Solving for p, Initial residual = 0.00199662, Final residual = 8.19322e-05, No Iterations 17
time step continuity errors : sum local = 1.54829e-09, global = 3.54141e-10, cumulative = -8.74032e-07
GAMG:  Solving for p, Initial residual = 8.27779e-05, Final residual = 8.08256e-07, No Iterations 34
time step continuity errors : sum local = 1.5225e-11, global = 3.83057e-12, cumulative = -8.74028e-07
smoothSolver:  Solving for nuTilda, Initial residual = 9.47803e-05, Final residual = 2.88399e-08, No Iterations 2
ExecutionTime = 37.55 s  ClockTime = 38 s

forceCoeffs forces write:
    Cm    = 0.186181
    Cd    = 0.372361
    Cl    = -0.000691917
    Cl(f) = 0.185835
    Cl(r) = -0.186527

Time = 0.3

Courant Number mean: 0.0135128 max: 0.355845
smoothSolver:  Solving for Ux, Initial residual = 0.00153738, Final residual = 2.28988e-09, No Iterations 2
smoothSolver:  Solving for Uy, Initial residual = 0.00130212, Final residual = 1.95252e-09, No Iterations 2
smoothSolver:  Solving for Uz, Initial residual = 0.296295, Final residual = 9.344e-08, No Iterations 2
GAMG:  Solving for p, Initial residual = 0.0331708, Final residual = 0.00152355, No Iterations 7
time step continuity errors : sum local = 2.79242e-08, global = -6.46767e-09, cumulative = -8.80496e-07
GAMG:  Solving for p, Initial residual = 0.00161782, Final residual = 6.28653e-05, No Iterations 17
time step continuity errors : sum local = 1.10151e-09, global = 2.52334e-10, cumulative = -8.80244e-07
GAMG:  Solving for p, Initial residual = 6.34703e-05, Final residual = 9.31096e-07, No Iterations 30
time step continuity errors : sum local = 1.62755e-11, global = 3.93531e-12, cumulative = -8.8024e-07
smoothSolver:  Solving for nuTilda, Initial residual = 9.06894e-05, Final residual = 1.91415e-08, No Iterations 2
ExecutionTime = 40.69 s  ClockTime = 41 s

forceCoeffs forces write:
    Cm    = 0.176884
    Cd    = 0.353768
    Cl    = -0.00124073
    Cl(f) = 0.176264
    Cl(r) = -0.177504

Time = 0.33

Courant Number mean: 0.0135176 max: 0.356007
smoothSolver:  Solving for Ux, Initial residual = 0.0014128, Final residual = 2.15045e-09, No Iterations 2
smoothSolver:  Solving for Uy, Initial residual = 0.00119443, Final residual = 1.85984e-09, No Iterations 2
smoothSolver:  Solving for Uz, Initial residual = 0.288934, Final residual = 5.96366e-10, No Iterations 3
GAMG:  Solving for p, Initial residual = 0.0300882, Final residual = 0.00129831, No Iterations 6
time step continuity errors : sum local = 2.21565e-08, global = 3.96274e-09, cumulative = -8.76277e-07
GAMG:  Solving for p, Initial residual = 0.0013578, Final residual = 5.75998e-05, No Iterations 15
time step continuity errors : sum local = 9.56066e-10, global = -1.97954e-10, cumulative = -8.76475e-07
GAMG:  Solving for p, Initial residual = 5.82121e-05, Final residual = 7.84647e-07, No Iterations 30
time step continuity errors : sum local = 1.30486e-11, global = -3.57705e-12, cumulative = -8.76479e-07
smoothSolver:  Solving for nuTilda, Initial residual = 8.8043e-05, Final residual = 2.06531e-08, No Iterations 2
ExecutionTime = 43.73 s  ClockTime = 44 s

forceCoeffs forces write:
    Cm    = 0.172967
    Cd    = 0.345934
    Cl    = 0.000576026
    Cl(f) = 0.173255
    Cl(r) = -0.172679

Time = 0.36

Courant Number mean: 0.0135224 max: 0.356135
smoothSolver:  Solving for Ux, Initial residual = 0.00133154, Final residual = 2.0901e-09, No Iterations 2
smoothSolver:  Solving for Uy, Initial residual = 0.00112993, Final residual = 1.78961e-09, No Iterations 2
smoothSolver:  Solving for Uz, Initial residual = 0.277486, Final residual = 4.48913e-10, No Iterations 3
GAMG:  Solving for p, Initial residual = 0.0280532, Final residual = 0.00124716, No Iterations 6
time step continuity errors : sum local = 2.03003e-08, global = 4.02823e-09, cumulative = -8.7245e-07
GAMG:  Solving for p, Initial residual = 0.00131387, Final residual = 5.51816e-05, No Iterations 18
time step continuity errors : sum local = 8.67397e-10, global = 2.01452e-10, cumulative = -8.72249e-07
GAMG:  Solving for p, Initial residual = 5.54909e-05, Final residual = 9.55073e-07, No Iterations 30
time step continuity errors : sum local = 1.49359e-11, global = 3.80005e-12, cumulative = -8.72245e-07
smoothSolver:  Solving for nuTilda, Initial residual = 8.58688e-05, Final residual = 2.86758e-08, No Iterations 2
ExecutionTime = 46.81 s  ClockTime = 48 s

forceCoeffs forces write:
    Cm    = 0.164497
    Cd    = 0.328994
    Cl    = 2.50149e-05
    Cl(f) = 0.16451
    Cl(r) = -0.164485

Time = 0.39

Courant Number mean: 0.013527 max: 0.356227
smoothSolver:  Solving for Ux, Initial residual = 0.00124955, Final residual = 1.98573e-09, No Iterations 2
smoothSolver:  Solving for Uy, Initial residual = 0.00106466, Final residual = 1.72475e-09, No Iterations 2
smoothSolver:  Solving for Uz, Initial residual = 0.252842, Final residual = 8.29634e-08, No Iterations 2
GAMG:  Solving for p, Initial residual = 0.0275424, Final residual = 0.00102617, No Iterations 6
time step continuity errors : sum local = 1.57212e-08, global = 3.01e-09, cumulative = -8.69235e-07
GAMG:  Solving for p, Initial residual = 0.00107675, Final residual = 4.20779e-05, No Iterations 18
time step continuity errors : sum local = 6.27043e-10, global = 1.91978e-10, cumulative = -8.69043e-07
GAMG:  Solving for p, Initial residual = 4.2394e-05, Final residual = 9.47606e-07, No Iterations 32
time step continuity errors : sum local = 1.40953e-11, global = 4.45609e-12, cumulative = -8.69039e-07
smoothSolver:  Solving for nuTilda, Initial residual = 8.353e-05, Final residual = 2.43536e-08, No Iterations 2
ExecutionTime = 50 s  ClockTime = 51 s

forceCoeffs forces write:
    Cm    = 0.158758
    Cd    = 0.317517
    Cl    = 0.00223657
    Cl(f) = 0.159877
    Cl(r) = -0.15764

Time = 0.42

Courant Number mean: 0.0135315 max: 0.356284
smoothSolver:  Solving for Ux, Initial residual = 0.00118859, Final residual = 1.91413e-09, No Iterations 2
smoothSolver:  Solving for Uy, Initial residual = 0.00101877, Final residual = 1.67383e-09, No Iterations 2
smoothSolver:  Solving for Uz, Initial residual = 0.261259, Final residual = 8.98985e-08, No Iterations 2
GAMG:  Solving for p, Initial residual = 0.0272888, Final residual = 0.00111801, No Iterations 6
time step continuity errors : sum local = 1.63223e-08, global = 3.36082e-09, cumulative = -8.65678e-07
GAMG:  Solving for p, Initial residual = 0.0011684, Final residual = 5.38634e-05, No Iterations 18
time step continuity errors : sum local = 7.63729e-10, global = 1.84775e-10, cumulative = -8.65493e-07
GAMG:  Solving for p, Initial residual = 5.37904e-05, Final residual = 8.71001e-07, No Iterations 30
time step continuity errors : sum local = 1.22783e-11, global = 3.0409e-12, cumulative = -8.6549e-07
smoothSolver:  Solving for nuTilda, Initial residual = 8.09578e-05, Final residual = 2.21047e-08, No Iterations 2
ExecutionTime = 53.08 s  ClockTime = 54 s

forceCoeffs forces write:
    Cm    = 0.151102
    Cd    = 0.302205
    Cl    = -0.001356
    Cl(f) = 0.150424
    Cl(r) = -0.15178

Time = 0.45

Courant Number mean: 0.0135357 max: 0.356304
smoothSolver:  Solving for Ux, Initial residual = 0.00113006, Final residual = 1.82446e-09, No Iterations 2
smoothSolver:  Solving for Uy, Initial residual = 0.000974623, Final residual = 1.62439e-09, No Iterations 2
smoothSolver:  Solving for Uz, Initial residual = 0.260077, Final residual = 9.32248e-08, No Iterations 2
GAMG:  Solving for p, Initial residual = 0.0271511, Final residual = 0.00122984, No Iterations 5
time step continuity errors : sum local = 1.70558e-08, global = -3.16715e-09, cumulative = -8.68657e-07
GAMG:  Solving for p, Initial residual = 0.00128069, Final residual = 5.06163e-05, No Iterations 15
time step continuity errors : sum local = 6.85213e-10, global = 1.87568e-10, cumulative = -8.6847e-07
GAMG:  Solving for p, Initial residual = 5.14428e-05, Final residual = 9.84981e-07, No Iterations 32
time step continuity errors : sum local = 1.33223e-11, global = 4.13412e-12, cumulative = -8.68466e-07
smoothSolver:  Solving for nuTilda, Initial residual = 7.82587e-05, Final residual = 1.92223e-08, No Iterations 2
ExecutionTime = 56.28 s  ClockTime = 57 s

forceCoeffs forces write:
    Cm    = 0.146163
    Cd    = 0.292326
    Cl    = -0.000252524
    Cl(f) = 0.146037
    Cl(r) = -0.146289

Time = 0.48

Courant Number mean: 0.0135399 max: 0.356292
smoothSolver:  Solving for Ux, Initial residual = 0.00108446, Final residual = 1.76682e-09, No Iterations 2
smoothSolver:  Solving for Uy, Initial residual = 0.000938304, Final residual = 1.57867e-09, No Iterations 2
smoothSolver:  Solving for Uz, Initial residual = 0.258216, Final residual = 4.386e-10, No Iterations 3
GAMG:  Solving for p, Initial residual = 0.0269247, Final residual = 0.000937186, No Iterations 6
time step continuity errors : sum local = 1.24809e-08, global = 2.37755e-09, cumulative = -8.66088e-07
GAMG:  Solving for p, Initial residual = 0.000981751, Final residual = 4.27593e-05, No Iterations 18
time step continuity errors : sum local = 5.54971e-10, global = 1.24994e-10, cumulative = -8.65963e-07
GAMG:  Solving for p, Initial residual = 4.29262e-05, Final residual = 9.83502e-07, No Iterations 28
time step continuity errors : sum local = 1.26909e-11, global = 3.22449e-12, cumulative = -8.6596e-07
smoothSolver:  Solving for nuTilda, Initial residual = 7.5618e-05, Final residual = 1.83905e-08, No Iterations 2
ExecutionTime = 59.35 s  ClockTime = 60 s

forceCoeffs forces write:
    Cm    = 0.139331
    Cd    = 0.278662
    Cl    = -0.000747897
    Cl(f) = 0.138957
    Cl(r) = -0.139705

Time = 0.51

Courant Number mean: 0.0135438 max: 0.356237
smoothSolver:  Solving for Ux, Initial residual = 0.00105074, Final residual = 1.69487e-09, No Iterations 2
smoothSolver:  Solving for Uy, Initial residual = 0.00090786, Final residual = 1.54028e-09, No Iterations 2
smoothSolver:  Solving for Uz, Initial residual = 0.248635, Final residual = 9.46232e-08, No Iterations 2
GAMG:  Solving for p, Initial residual = 0.0268283, Final residual = 0.00124217, No Iterations 5
time step continuity errors : sum local = 1.58022e-08, global = -3.39425e-09, cumulative = -8.69354e-07
GAMG:  Solving for p, Initial residual = 0.00127072, Final residual = 5.76205e-05, No Iterations 18
time step continuity errors : sum local = 7.26755e-10, global = -1.69901e-10, cumulative = -8.69524e-07
GAMG:  Solving for p, Initial residual = 5.69004e-05, Final residual = 8.57139e-07, No Iterations 32
time step continuity errors : sum local = 1.09192e-11, global = -2.91916e-12, cumulative = -8.69527e-07
smoothSolver:  Solving for nuTilda, Initial residual = 7.31384e-05, Final residual = 1.79145e-08, No Iterations 2
ExecutionTime = 62.45 s  ClockTime = 63 s

forceCoeffs forces write:
    Cm    = 0.141022
    Cd    = 0.282044
    Cl    = -0.000856311
    Cl(f) = 0.140594
    Cl(r) = -0.14145

Time = 0.54

Courant Number mean: 0.0135478 max: 0.35615
smoothSolver:  Solving for Ux, Initial residual = 0.00104863, Final residual = 1.72625e-09, No Iterations 2
smoothSolver:  Solving for Uy, Initial residual = 0.000887584, Final residual = 1.50456e-09, No Iterations 2
smoothSolver:  Solving for Uz, Initial residual = 0.253722, Final residual = 8.57908e-08, No Iterations 2
GAMG:  Solving for p, Initial residual = 0.0257664, Final residual = 0.00100701, No Iterations 6
time step continuity errors : sum local = 1.26633e-08, global = 2.60132e-09, cumulative = -8.66925e-07
GAMG:  Solving for p, Initial residual = 0.00105301, Final residual = 5.07169e-05, No Iterations 20
time step continuity errors : sum local = 6.21234e-10, global = 1.71806e-10, cumulative = -8.66754e-07
GAMG:  Solving for p, Initial residual = 5.07472e-05, Final residual = 8.03082e-07, No Iterations 34
time step continuity errors : sum local = 9.76041e-12, global = 2.8549e-12, cumulative = -8.66751e-07
smoothSolver:  Solving for nuTilda, Initial residual = 7.08677e-05, Final residual = 1.79429e-08, No Iterations 2
ExecutionTime = 65.71 s  ClockTime = 66 s

forceCoeffs forces write:
    Cm    = 0.133315
    Cd    = 0.266629
    Cl    = 0.00125769
    Cl(f) = 0.133943
    Cl(r) = -0.132686

Time = 0.57

Courant Number mean: 0.0135517 max: 0.356032
smoothSolver:  Solving for Ux, Initial residual = 0.00101463, Final residual = 1.65012e-09, No Iterations 2
smoothSolver:  Solving for Uy, Initial residual = 0.000869343, Final residual = 1.47417e-09, No Iterations 2
smoothSolver:  Solving for Uz, Initial residual = 0.248554, Final residual = 8.95644e-08, No Iterations 2
GAMG:  Solving for p, Initial residual = 0.0260574, Final residual = 0.000881657, No Iterations 5
time step continuity errors : sum local = 1.05794e-08, global = -1.97059e-09, cumulative = -8.68721e-07
GAMG:  Solving for p, Initial residual = 0.000908888, Final residual = 3.61257e-05, No Iterations 18
time step continuity errors : sum local = 4.28343e-10, global = -1.15518e-10, cumulative = -8.68837e-07
GAMG:  Solving for p, Initial residual = 3.62635e-05, Final residual = 9.0838e-07, No Iterations 30
time step continuity errors : sum local = 1.08176e-11, global = -3.1824e-12, cumulative = -8.6884e-07
smoothSolver:  Solving for nuTilda, Initial residual = 6.8817e-05, Final residual = 1.79239e-08, No Iterations 2
ExecutionTime = 69.18 s  ClockTime = 70 s

forceCoeffs forces write:
    Cm    = 0.132563
    Cd    = 0.265127
    Cl    = -4.27363e-05
    Cl(f) = 0.132542
    Cl(r) = -0.132585

Time = 0.6

Courant Number mean: 0.0135556 max: 0.356079
smoothSolver:  Solving for Ux, Initial residual = 0.00100523, Final residual = 1.65281e-09, No Iterations 2
smoothSolver:  Solving for Uy, Initial residual = 0.00085069, Final residual = 1.44372e-09, No Iterations 2
smoothSolver:  Solving for Uz, Initial residual = 0.249095, Final residual = 8.50332e-08, No Iterations 2
GAMG:  Solving for p, Initial residual = 0.0256564, Final residual = 0.000938, No Iterations 6
time step continuity errors : sum local = 1.10427e-08, global = 2.32359e-09, cumulative = -8.66517e-07
GAMG:  Solving for p, Initial residual = 0.000976985, Final residual = 4.57818e-05, No Iterations 18
time step continuity errors : sum local = 5.2716e-10, global = 1.35117e-10, cumulative = -8.66381e-07
GAMG:  Solving for p, Initial residual = 4.55079e-05, Final residual = 9.89851e-07, No Iterations 30
time step continuity errors : sum local = 1.13405e-11, global = 3.346e-12, cumulative = -8.66378e-07
smoothSolver:  Solving for nuTilda, Initial residual = 6.69866e-05, Final residual = 1.78236e-08, No Iterations 2
ExecutionTime = 72.46 s  ClockTime = 73 s

forceCoeffs forces write:
    Cm    = 0.127272
    Cd    = 0.254544
    Cl    = 0.00236814
    Cl(f) = 0.128456
    Cl(r) = -0.126088

Time = 0.63

Courant Number mean: 0.0135594 max: 0.356429
smoothSolver:  Solving for Ux, Initial residual = 0.000981608, Final residual = 1.60071e-09, No Iterations 2
smoothSolver:  Solving for Uy, Initial residual = 0.000828767, Final residual = 1.41496e-09, No Iterations 2
smoothSolver:  Solving for Uz, Initial residual = 0.234827, Final residual = 7.08969e-08, No Iterations 2
GAMG:  Solving for p, Initial residual = 0.0258245, Final residual = 0.00118108, No Iterations 5
time step continuity errors : sum local = 1.33787e-08, global = -2.98513e-09, cumulative = -8.69363e-07
GAMG:  Solving for p, Initial residual = 0.00120681, Final residual = 5.52843e-05, No Iterations 20
time step continuity errors : sum local = 6.21845e-10, global = -1.86234e-10, cumulative = -8.69549e-07
GAMG:  Solving for p, Initial residual = 5.45703e-05, Final residual = 9.54692e-07, No Iterations 34
time step continuity errors : sum local = 1.08069e-11, global = -3.34766e-12, cumulative = -8.69553e-07
smoothSolver:  Solving for nuTilda, Initial residual = 6.53607e-05, Final residual = 1.79192e-08, No Iterations 2
ExecutionTime = 75.68 s  ClockTime = 76 s

forceCoeffs forces write:
    Cm    = 0.12792
    Cd    = 0.25584
    Cl    = -0.00225068
    Cl(f) = 0.126795
    Cl(r) = -0.129046

Time = 0.66

Courant Number mean: 0.0135633 max: 0.356773
smoothSolver:  Solving for Ux, Initial residual = 0.000977238, Final residual = 1.62189e-09, No Iterations 2
smoothSolver:  Solving for Uy, Initial residual = 0.000814753, Final residual = 1.38725e-09, No Iterations 2
smoothSolver:  Solving for Uz, Initial residual = 0.262619, Final residual = 8.39203e-08, No Iterations 2
GAMG:  Solving for p, Initial residual = 0.0256552, Final residual = 0.00108897, No Iterations 5
time step continuity errors : sum local = 1.22056e-08, global = -2.96477e-09, cumulative = -8.72518e-07
GAMG:  Solving for p, Initial residual = 0.00111821, Final residual = 4.33623e-05, No Iterations 18
time step continuity errors : sum local = 4.81263e-10, global = -1.45329e-10, cumulative = -8.72663e-07
GAMG:  Solving for p, Initial residual = 4.33994e-05, Final residual = 9.77914e-07, No Iterations 29
time step continuity errors : sum local = 1.08787e-11, global = 4.24351e-12, cumulative = -8.72659e-07
smoothSolver:  Solving for nuTilda, Initial residual = 6.39221e-05, Final residual = 1.80499e-08, No Iterations 2
ExecutionTime = 78.76 s  ClockTime = 80 s

forceCoeffs forces write:
    Cm    = 0.126114
    Cd    = 0.252227
    Cl    = -1.67668e-05
    Cl(f) = 0.126105
    Cl(r) = -0.126122

Time = 0.69

Courant Number mean: 0.0135672 max: 0.357111
smoothSolver:  Solving for Ux, Initial residual = 0.000967392, Final residual = 1.6123e-09, No Iterations 2
smoothSolver:  Solving for Uy, Initial residual = 0.000812307, Final residual = 1.37155e-09, No Iterations 2
smoothSolver:  Solving for Uz, Initial residual = 0.267887, Final residual = 8.35673e-08, No Iterations 2
GAMG:  Solving for p, Initial residual = 0.0254233, Final residual = 0.000916643, No Iterations 6
time step continuity errors : sum local = 1.00969e-08, global = 2.08223e-09, cumulative = -8.70576e-07
GAMG:  Solving for p, Initial residual = 0.00095458, Final residual = 3.81274e-05, No Iterations 18
time step continuity errors : sum local = 4.11816e-10, global = 9.5848e-11, cumulative = -8.70481e-07
GAMG:  Solving for p, Initial residual = 3.79119e-05, Final residual = 9.23674e-07, No Iterations 26
time step continuity errors : sum local = 9.92766e-12, global = 2.40849e-12, cumulative = -8.70478e-07
smoothSolver:  Solving for nuTilda, Initial residual = 6.26409e-05, Final residual = 1.8196e-08, No Iterations 2
ExecutionTime = 81.69 s  ClockTime = 82 s

forceCoeffs forces write:
    Cm    = 0.121828
    Cd    = 0.243655
    Cl    = -0.000291222
    Cl(f) = 0.121682
    Cl(r) = -0.121973

Time = 0.72

Courant Number mean: 0.013571 max: 0.357438
smoothSolver:  Solving for Ux, Initial residual = 0.000947801, Final residual = 1.57341e-09, No Iterations 2
smoothSolver:  Solving for Uy, Initial residual = 0.000791205, Final residual = 1.346e-09, No Iterations 2
smoothSolver:  Solving for Uz, Initial residual = 0.240094, Final residual = 9.53717e-08, No Iterations 2
GAMG:  Solving for p, Initial residual = 0.0255377, Final residual = 0.00104502, No Iterations 5
time step continuity errors : sum local = 1.11273e-08, global = -2.79828e-09, cumulative = -8.73276e-07
GAMG:  Solving for p, Initial residual = 0.00107173, Final residual = 4.95301e-05, No Iterations 20
time step continuity errors : sum local = 5.23753e-10, global = -1.34659e-10, cumulative = -8.73411e-07
GAMG:  Solving for p, Initial residual = 4.84491e-05, Final residual = 8.91717e-07, No Iterations 30
time step continuity errors : sum local = 9.49656e-12, global = -2.38453e-12, cumulative = -8.73413e-07
smoothSolver:  Solving for nuTilda, Initial residual = 6.1494e-05, Final residual = 1.83702e-08, No Iterations 2
ExecutionTime = 84.78 s  ClockTime = 86 s

forceCoeffs forces write:
    Cm    = 0.122793
    Cd    = 0.245587
    Cl    = 0.00315058
    Cl(f) = 0.124369
    Cl(r) = -0.121218

Time = 0.75

Courant Number mean: 0.0135749 max: 0.357758
smoothSolver:  Solving for Ux, Initial residual = 0.000945701, Final residual = 1.59268e-09, No Iterations 2
smoothSolver:  Solving for Uy, Initial residual = 0.000776346, Final residual = 1.32177e-09, No Iterations 2
smoothSolver:  Solving for Uz, Initial residual = 0.244319, Final residual = 4.28824e-10, No Iterations 3
GAMG:  Solving for p, Initial residual = 0.0251611, Final residual = 0.00123835, No Iterations 4
time step continuity errors : sum local = 1.3077e-08, global = 2.52863e-09, cumulative = -8.70885e-07
GAMG:  Solving for p, Initial residual = 0.00127135, Final residual = 6.2992e-05, No Iterations 18
time step continuity errors : sum local = 6.55787e-10, global = 1.6506e-10, cumulative = -8.7072e-07
GAMG:  Solving for p, Initial residual = 6.28737e-05, Final residual = 9.92256e-07, No Iterations 32
time step continuity errors : sum local = 1.02504e-11, global = 2.69528e-12, cumulative = -8.70717e-07
smoothSolver:  Solving for nuTilda, Initial residual = 6.04494e-05, Final residual = 1.85686e-08, No Iterations 2
ExecutionTime = 88.13 s  ClockTime = 89 s

forceCoeffs forces write:
    Cm    = 0.118004
    Cd    = 0.236008
    Cl    = 0.00174429
    Cl(f) = 0.118876
    Cl(r) = -0.117132

Time = 0.78

Courant Number mean: 0.0135788 max: 0.358066
smoothSolver:  Solving for Ux, Initial residual = 0.000923721, Final residual = 1.54604e-09, No Iterations 2
smoothSolver:  Solving for Uy, Initial residual = 0.000769363, Final residual = 1.30615e-09, No Iterations 2
smoothSolver:  Solving for Uz, Initial residual = 0.219405, Final residual = 8.11475e-08, No Iterations 2
GAMG:  Solving for p, Initial residual = 0.0254085, Final residual = 0.000989698, No Iterations 7
time step continuity errors : sum local = 1.01365e-08, global = -2.06771e-09, cumulative = -8.72785e-07
GAMG:  Solving for p, Initial residual = 0.00100515, Final residual = 5.00362e-05, No Iterations 22
time step continuity errors : sum local = 5.18088e-10, global = -1.47943e-10, cumulative = -8.72933e-07
GAMG:  Solving for p, Initial residual = 4.88171e-05, Final residual = 8.0753e-07, No Iterations 34
time step continuity errors : sum local = 8.4228e-12, global = -2.47762e-12, cumulative = -8.72935e-07
smoothSolver:  Solving for nuTilda, Initial residual = 5.95027e-05, Final residual = 1.87819e-08, No Iterations 2
ExecutionTime = 91.48 s  ClockTime = 92 s

forceCoeffs forces write:
    Cm    = 0.122871
    Cd    = 0.245742
    Cl    = -0.000348737
    Cl(f) = 0.122697
    Cl(r) = -0.123046

Time = 0.81

Courant Number mean: 0.0135828 max: 0.358373
smoothSolver:  Solving for Ux, Initial residual = 0.000939723, Final residual = 1.61502e-09, No Iterations 2
smoothSolver:  Solving for Uy, Initial residual = 0.000754155, Final residual = 1.28446e-09, No Iterations 2
smoothSolver:  Solving for Uz, Initial residual = 0.231691, Final residual = 8.47961e-08, No Iterations 2
GAMG:  Solving for p, Initial residual = 0.0249059, Final residual = 0.00100329, No Iterations 8
time step continuity errors : sum local = 1.03839e-08, global = 2.3979e-09, cumulative = -8.70537e-07
GAMG:  Solving for p, Initial residual = 0.00105984, Final residual = 4.45515e-05, No Iterations 24
time step continuity errors : sum local = 4.46774e-10, global = 1.24846e-10, cumulative = -8.70412e-07
GAMG:  Solving for p, Initial residual = 4.38657e-05, Final residual = 8.81011e-07, No Iterations 32
time step continuity errors : sum local = 8.742e-12, global = 2.51844e-12, cumulative = -8.7041e-07
smoothSolver:  Solving for nuTilda, Initial residual = 5.86277e-05, Final residual = 1.90039e-08, No Iterations 2
ExecutionTime = 94.87 s  ClockTime = 96 s

forceCoeffs forces write:
    Cm    = 0.113506
    Cd    = 0.227012
    Cl    = -1.16705e-05
    Cl(f) = 0.1135
    Cl(r) = -0.113512

Time = 0.84

Courant Number mean: 0.0135866 max: 0.358693
smoothSolver:  Solving for Ux, Initial residual = 0.000899976, Final residual = 1.51282e-09, No Iterations 2
smoothSolver:  Solving for Uy, Initial residual = 0.000756563, Final residual = 1.27631e-09, No Iterations 2
smoothSolver:  Solving for Uz, Initial residual = 0.238384, Final residual = 8.19256e-08, No Iterations 2
GAMG:  Solving for p, Initial residual = 0.0253788, Final residual = 0.0011014, No Iterations 5
time step continuity errors : sum local = 1.08425e-08, global = -3.01313e-09, cumulative = -8.73423e-07
GAMG:  Solving for p, Initial residual = 0.0011268, Final residual = 4.8183e-05, No Iterations 22
time step continuity errors : sum local = 4.72847e-10, global = -1.40874e-10, cumulative = -8.73564e-07
GAMG:  Solving for p, Initial residual = 4.74524e-05, Final residual = 9.98282e-07, No Iterations 32
time step continuity errors : sum local = 9.85544e-12, global = -2.88454e-12, cumulative = -8.73567e-07
smoothSolver:  Solving for nuTilda, Initial residual = 5.78139e-05, Final residual = 1.92756e-08, No Iterations 2
ExecutionTime = 98.18 s  ClockTime = 99 s

forceCoeffs forces write:
    Cm    = 0.114953
    Cd    = 0.229906
    Cl    = -0.0010549
    Cl(f) = 0.114426
    Cl(r) = -0.11548

Time = 0.87

Courant Number mean: 0.0135904 max: 0.359014
smoothSolver:  Solving for Ux, Initial residual = 0.000903846, Final residual = 1.53582e-09, No Iterations 2
smoothSolver:  Solving for Uy, Initial residual = 0.000742822, Final residual = 1.25749e-09, No Iterations 2
smoothSolver:  Solving for Uz, Initial residual = 0.243642, Final residual = 9.50388e-08, No Iterations 2
GAMG:  Solving for p, Initial residual = 0.0249519, Final residual = 0.00112288, No Iterations 5
time step continuity errors : sum local = 1.10137e-08, global = -3.02689e-09, cumulative = -8.76594e-07
GAMG:  Solving for p, Initial residual = 0.00115082, Final residual = 5.69234e-05, No Iterations 18
time step continuity errors : sum local = 5.54957e-10, global = -1.29613e-10, cumulative = -8.76723e-07
GAMG:  Solving for p, Initial residual = 5.59212e-05, Final residual = 8.9757e-07, No Iterations 30
time step continuity errors : sum local = 8.79131e-12, global = -2.21717e-12, cumulative = -8.76726e-07
smoothSolver:  Solving for nuTilda, Initial residual = 5.70428e-05, Final residual = 1.95008e-08, No Iterations 2
ExecutionTime = 101.42 s  ClockTime = 102 s

forceCoeffs forces write:
    Cm    = 0.115113
    Cd    = 0.230227
    Cl    = -8.04047e-05
    Cl(f) = 0.115073
    Cl(r) = -0.115154

Time = 0.9

Courant Number mean: 0.0135944 max: 0.359332
smoothSolver:  Solving for Ux, Initial residual = 0.000899222, Final residual = 1.54664e-09, No Iterations 2
smoothSolver:  Solving for Uy, Initial residual = 0.00073508, Final residual = 1.24293e-09, No Iterations 2
smoothSolver:  Solving for Uz, Initial residual = 0.233974, Final residual = 8.67556e-08, No Iterations 2
GAMG:  Solving for p, Initial residual = 0.0249812, Final residual = 0.00121788, No Iterations 6
time step continuity errors : sum local = 1.1847e-08, global = 2.77456e-09, cumulative = -8.73951e-07
GAMG:  Solving for p, Initial residual = 0.00126707, Final residual = 5.87474e-05, No Iterations 20
time step continuity errors : sum local = 5.57816e-10, global = 1.33088e-10, cumulative = -8.73818e-07
GAMG:  Solving for p, Initial residual = 5.83174e-05, Final residual = 8.8113e-07, No Iterations 32
time step continuity errors : sum local = 8.2648e-12, global = 2.19175e-12, cumulative = -8.73816e-07
smoothSolver:  Solving for nuTilda, Initial residual = 5.63074e-05, Final residual = 1.97527e-08, No Iterations 2
ExecutionTime = 104.61 s  ClockTime = 105 s

forceCoeffs forces write:
    Cm    = 0.108365
    Cd    = 0.216729
    Cl    = -0.000627318
    Cl(f) = 0.108051
    Cl(r) = -0.108678

Time = 0.93

Courant Number mean: 0.0135981 max: 0.359639
smoothSolver:  Solving for Ux, Initial residual = 0.00087278, Final residual = 1.47197e-09, No Iterations 2
smoothSolver:  Solving for Uy, Initial residual = 0.000724986, Final residual = 1.23122e-09, No Iterations 2
smoothSolver:  Solving for Uz, Initial residual = 0.227084, Final residual = 7.39796e-08, No Iterations 2
GAMG:  Solving for p, Initial residual = 0.0254581, Final residual = 0.0011879, No Iterations 5
time step continuity errors : sum local = 1.10651e-08, global = -2.42288e-09, cumulative = -8.76239e-07
GAMG:  Solving for p, Initial residual = 0.00120261, Final residual = 5.73167e-05, No Iterations 20
time step continuity errors : sum local = 5.36203e-10, global = -1.36786e-10, cumulative = -8.76375e-07
GAMG:  Solving for p, Initial residual = 5.60429e-05, Final residual = 9.54476e-07, No Iterations 32
time step continuity errors : sum local = 9.01655e-12, global = -2.46203e-12, cumulative = -8.76378e-07
smoothSolver:  Solving for nuTilda, Initial residual = 5.55927e-05, Final residual = 1.79416e-08, No Iterations 2
ExecutionTime = 107.88 s  ClockTime = 109 s

forceCoeffs forces write:
    Cm    = 0.111665
    Cd    = 0.22333
    Cl    = -4.62749e-05
    Cl(f) = 0.111642
    Cl(r) = -0.111688

Time = 0.96

Courant Number mean: 0.0136019 max: 0.359944
smoothSolver:  Solving for Ux, Initial residual = 0.000882949, Final residual = 1.51533e-09, No Iterations 2
smoothSolver:  Solving for Uy, Initial residual = 0.000716054, Final residual = 1.2151e-09, No Iterations 2
smoothSolver:  Solving for Uz, Initial residual = 0.248614, Final residual = 4.21758e-10, No Iterations 3
GAMG:  Solving for p, Initial residual = 0.0250535, Final residual = 0.000885144, No Iterations 6
time step continuity errors : sum local = 8.311e-09, global = 2.20728e-09, cumulative = -8.74171e-07
GAMG:  Solving for p, Initial residual = 0.000918842, Final residual = 4.03001e-05, No Iterations 22
time step continuity errors : sum local = 3.72658e-10, global = 1.02889e-10, cumulative = -8.74068e-07
GAMG:  Solving for p, Initial residual = 3.98779e-05, Final residual = 9.65524e-07, No Iterations 30
time step continuity errors : sum local = 8.86528e-12, global = 2.47991e-12, cumulative = -8.74065e-07
smoothSolver:  Solving for nuTilda, Initial residual = 5.48962e-05, Final residual = 1.81179e-08, No Iterations 2
ExecutionTime = 111.08 s  ClockTime = 112 s

forceCoeffs forces write:
    Cm    = 0.107294
    Cd    = 0.214587
    Cl    = -0.00107991
    Cl(f) = 0.106754
    Cl(r) = -0.107834

Time = 0.99

Courant Number mean: 0.0136056 max: 0.36024
smoothSolver:  Solving for Ux, Initial residual = 0.000860336, Final residual = 1.46978e-09, No Iterations 2
smoothSolver:  Solving for Uy, Initial residual = 0.000713509, Final residual = 1.20419e-09, No Iterations 2
smoothSolver:  Solving for Uz, Initial residual = 0.249817, Final residual = 8.52993e-08, No Iterations 2
GAMG:  Solving for p, Initial residual = 0.0254574, Final residual = 0.000976184, No Iterations 6
time step continuity errors : sum local = 8.90165e-09, global = 2.29108e-09, cumulative = -8.71774e-07
GAMG:  Solving for p, Initial residual = 0.00101234, Final residual = 4.54101e-05, No Iterations 20
time step continuity errors : sum local = 4.07692e-10, global = 1.04435e-10, cumulative = -8.7167e-07
GAMG:  Solving for p, Initial residual = 4.48741e-05, Final residual = 9.97717e-07, No Iterations 28
time step continuity errors : sum local = 8.90288e-12, global = 2.41546e-12, cumulative = -8.71667e-07
smoothSolver:  Solving for nuTilda, Initial residual = 5.42077e-05, Final residual = 1.82949e-08, No Iterations 2
ExecutionTime = 114.13 s  ClockTime = 115 s

forceCoeffs forces write:
    Cm    = 0.104063
    Cd    = 0.208127
    Cl    = -0.00247635
    Cl(f) = 0.102825
    Cl(r) = -0.105301

Time = 1.02

Courant Number mean: 0.0136091 max: 0.360527
smoothSolver:  Solving for Ux, Initial residual = 0.000847049, Final residual = 1.43441e-09, No Iterations 2
smoothSolver:  Solving for Uy, Initial residual = 0.000700981, Final residual = 1.19301e-09, No Iterations 2
smoothSolver:  Solving for Uz, Initial residual = 0.233327, Final residual = 7.48488e-08, No Iterations 2
GAMG:  Solving for p, Initial residual = 0.02586, Final residual = 0.00113618, No Iterations 5
time step continuity errors : sum local = 1.0077e-08, global = -3.14146e-09, cumulative = -8.74809e-07
GAMG:  Solving for p, Initial residual = 0.00116719, Final residual = 5.25461e-05, No Iterations 23
time step continuity errors : sum local = 4.61823e-10, global = 1.67386e-10, cumulative = -8.74641e-07
GAMG:  Solving for p, Initial residual = 5.2281e-05, Final residual = 8.19039e-07, No Iterations 36
time step continuity errors : sum local = 7.19741e-12, global = 2.44723e-12, cumulative = -8.74639e-07
smoothSolver:  Solving for nuTilda, Initial residual = 5.35176e-05, Final residual = 1.84588e-08, No Iterations 2
ExecutionTime = 118.28 s  ClockTime = 119 s

forceCoeffs forces write:
    Cm    = 0.102377
    Cd    = 0.204754
    Cl    = 0.000325507
    Cl(f) = 0.10254
    Cl(r) = -0.102214

Time = 1.05

Courant Number mean: 0.0136126 max: 0.360805
smoothSolver:  Solving for Ux, Initial residual = 0.000834571, Final residual = 1.41419e-09, No Iterations 2
smoothSolver:  Solving for Uy, Initial residual = 0.000697809, Final residual = 1.18265e-09, No Iterations 2
smoothSolver:  Solving for Uz, Initial residual = 0.255954, Final residual = 8.13005e-08, No Iterations 2
GAMG:  Solving for p, Initial residual = 0.0258957, Final residual = 0.00102475, No Iterations 5
time step continuity errors : sum local = 8.95279e-09, global = -2.70073e-09, cumulative = -8.7734e-07
GAMG:  Solving for p, Initial residual = 0.00104749, Final residual = 4.72416e-05, No Iterations 22
time step continuity errors : sum local = 4.12325e-10, global = -1.14645e-10, cumulative = -8.77454e-07
GAMG:  Solving for p, Initial residual = 4.59417e-05, Final residual = 9.54558e-07, No Iterations 30
time step continuity errors : sum local = 8.3833e-12, global = -2.17131e-12, cumulative = -8.77456e-07
smoothSolver:  Solving for nuTilda, Initial residual = 5.28239e-05, Final residual = 1.85948e-08, No Iterations 2
ExecutionTime = 121.44 s  ClockTime = 122 s

forceCoeffs forces write:
    Cm    = 0.104166
    Cd    = 0.208331
    Cl    = 0.00276778
    Cl(f) = 0.105549
    Cl(r) = -0.102782

Time = 1.08

Courant Number mean: 0.0136162 max: 0.361078
smoothSolver:  Solving for Ux, Initial residual = 0.000842849, Final residual = 1.44031e-09, No Iterations 2
smoothSolver:  Solving for Uy, Initial residual = 0.000687013, Final residual = 1.1703e-09, No Iterations 2
smoothSolver:  Solving for Uz, Initial residual = 0.229729, Final residual = 8.54723e-08, No Iterations 2
GAMG:  Solving for p, Initial residual = 0.0256802, Final residual = 0.000799182, No Iterations 6
time step continuity errors : sum local = 6.98255e-09, global = 1.64897e-09, cumulative = -8.75807e-07
GAMG:  Solving for p, Initial residual = 0.000836085, Final residual = 3.45642e-05, No Iterations 22
time step continuity errors : sum local = 2.97618e-10, global = 7.79893e-11, cumulative = -8.75729e-07
GAMG:  Solving for p, Initial residual = 3.40537e-05, Final residual = 9.55587e-07, No Iterations 28
time step continuity errors : sum local = 8.16896e-12, global = 2.19268e-12, cumulative = -8.75727e-07
smoothSolver:  Solving for nuTilda, Initial residual = 5.21105e-05, Final residual = 1.87144e-08, No Iterations 2
ExecutionTime = 124.57 s  ClockTime = 125 s

forceCoeffs forces write:
    Cm    = 0.100211
    Cd    = 0.200422
    Cl    = 0.00206343
    Cl(f) = 0.101243
    Cl(r) = -0.0991795

Time = 1.11

Courant Number mean: 0.0136197 max: 0.361342
smoothSolver:  Solving for Ux, Initial residual = 0.000824268, Final residual = 1.39741e-09, No Iterations 2
smoothSolver:  Solving for Uy, Initial residual = 0.000684025, Final residual = 1.16296e-09, No Iterations 2
smoothSolver:  Solving for Uz, Initial residual = 0.246213, Final residual = 9.88286e-08, No Iterations 2
GAMG:  Solving for p, Initial residual = 0.0261914, Final residual = 0.00117821, No Iterations 5
time step continuity errors : sum local = 1.00168e-08, global = -2.97535e-09, cumulative = -8.78703e-07
GAMG:  Solving for p, Initial residual = 0.00120114, Final residual = 5.80371e-05, No Iterations 24
time step continuity errors : sum local = 4.91583e-10, global = -1.70623e-10, cumulative = -8.78873e-07
GAMG:  Solving for p, Initial residual = 5.68559e-05, Final residual = 8.92527e-07, No Iterations 36
time step continuity errors : sum local = 7.58838e-12, global = -2.53429e-12, cumulative = -8.78876e-07
smoothSolver:  Solving for nuTilda, Initial residual = 5.13784e-05, Final residual = 1.88248e-08, No Iterations 2
ExecutionTime = 128.4 s  ClockTime = 129 s

forceCoeffs forces write:
    Cm    = 0.100676
    Cd    = 0.201353
    Cl    = -0.0027544
    Cl(f) = 0.0992992
    Cl(r) = -0.102054

Time = 1.14

Courant Number mean: 0.0136231 max: 0.361598
smoothSolver:  Solving for Ux, Initial residual = 0.000824516, Final residual = 1.40663e-09, No Iterations 2
smoothSolver:  Solving for Uy, Initial residual = 0.000678696, Final residual = 1.15324e-09, No Iterations 2
smoothSolver:  Solving for Uz, Initial residual = 0.253026, Final residual = 8.52184e-08, No Iterations 2
GAMG:  Solving for p, Initial residual = 0.0259455, Final residual = 0.00121684, No Iterations 5
time step continuity errors : sum local = 1.02991e-08, global = -2.09132e-09, cumulative = -8.80967e-07
GAMG:  Solving for p, Initial residual = 0.00121811, Final residual = 5.19956e-05, No Iterations 20
time step continuity errors : sum local = 4.46532e-10, global = -1.04581e-10, cumulative = -8.81072e-07
GAMG:  Solving for p, Initial residual = 5.02367e-05, Final residual = 9.17568e-07, No Iterations 30
time step continuity errors : sum local = 7.96042e-12, global = -2.01501e-12, cumulative = -8.81074e-07
smoothSolver:  Solving for nuTilda, Initial residual = 5.06219e-05, Final residual = 1.89271e-08, No Iterations 2
ExecutionTime = 131.69 s  ClockTime = 133 s

forceCoeffs forces write:
    Cm    = 0.105715
    Cd    = 0.211431
    Cl    = -0.000649441
    Cl(f) = 0.105391
    Cl(r) = -0.10604

Time = 1.17

Courant Number mean: 0.0136269 max: 0.361854
smoothSolver:  Solving for Ux, Initial residual = 0.000840908, Final residual = 1.47307e-09, No Iterations 2
smoothSolver:  Solving for Uy, Initial residual = 0.000669919, Final residual = 1.1381e-09, No Iterations 2
smoothSolver:  Solving for Uz, Initial residual = 0.244012, Final residual = 6.64098e-08, No Iterations 2
GAMG:  Solving for p, Initial residual = 0.0255555, Final residual = 0.00119053, No Iterations 6
time step continuity errors : sum local = 1.02791e-08, global = 2.72443e-09, cumulative = -8.78349e-07
GAMG:  Solving for p, Initial residual = 0.00123511, Final residual = 5.47284e-05, No Iterations 22
time step continuity errors : sum local = 4.62205e-10, global = 1.18489e-10, cumulative = -8.78231e-07
GAMG:  Solving for p, Initial residual = 5.39993e-05, Final residual = 9.35021e-07, No Iterations 32
time step continuity errors : sum local = 7.78694e-12, global = 2.1323e-12, cumulative = -8.78229e-07
smoothSolver:  Solving for nuTilda, Initial residual = 4.98356e-05, Final residual = 1.90493e-08, No Iterations 2
ExecutionTime = 134.94 s  ClockTime = 136 s

forceCoeffs forces write:
    Cm    = 0.0989943
    Cd    = 0.197989
    Cl    = -0.00181252
    Cl(f) = 0.098088
    Cl(r) = -0.0999005

Time = 1.2

Courant Number mean: 0.0136304 max: 0.362098
smoothSolver:  Solving for Ux, Initial residual = 0.000815142, Final residual = 1.39793e-09, No Iterations 2
smoothSolver:  Solving for Uy, Initial residual = 0.000673858, Final residual = 1.13773e-09, No Iterations 2
smoothSolver:  Solving for Uz, Initial residual = 0.2454, Final residual = 8.5966e-08, No Iterations 2
GAMG:  Solving for p, Initial residual = 0.0258561, Final residual = 0.00106616, No Iterations 6
time step continuity errors : sum local = 8.82942e-09, global = 2.16016e-09, cumulative = -8.76069e-07
GAMG:  Solving for p, Initial residual = 0.00110577, Final residual = 5.43322e-05, No Iterations 18
time step continuity errors : sum local = 4.41874e-10, global = 1.21905e-10, cumulative = -8.75947e-07
GAMG:  Solving for p, Initial residual = 5.39589e-05, Final residual = 9.39012e-07, No Iterations 32
time step continuity errors : sum local = 7.58738e-12, global = 2.30446e-12, cumulative = -8.75944e-07
smoothSolver:  Solving for nuTilda, Initial residual = 4.90138e-05, Final residual = 1.91335e-08, No Iterations 2
ExecutionTime = 138.07 s  ClockTime = 139 s

forceCoeffs forces write:
    Cm    = 0.0959789
    Cd    = 0.191958
    Cl    = 0.00133388
    Cl(f) = 0.0966459
    Cl(r) = -0.095312

Time = 1.23

Courant Number mean: 0.0136338 max: 0.362329
smoothSolver:  Solving for Ux, Initial residual = 0.000799088, Final residual = 1.35963e-09, No Iterations 2
smoothSolver:  Solving for Uy, Initial residual = 0.000657988, Final residual = 1.12425e-09, No Iterations 2
smoothSolver:  Solving for Uz, Initial residual = 0.227164, Final residual = 4.21129e-10, No Iterations 3
GAMG:  Solving for p, Initial residual = 0.0264767, Final residual = 0.0010378, No Iterations 10
time step continuity errors : sum local = 8.34889e-09, global = -1.38297e-09, cumulative = -8.77327e-07
GAMG:  Solving for p, Initial residual = 0.00101256, Final residual = 4.53731e-05, No Iterations 20
time step continuity errors : sum local = 3.83482e-10, global = -9.01159e-11, cumulative = -8.77417e-07
GAMG:  Solving for p, Initial residual = 4.38555e-05, Final residual = 7.75932e-07, No Iterations 30
time step continuity errors : sum local = 6.6062e-12, global = -1.63735e-12, cumulative = -8.77419e-07
smoothSolver:  Solving for nuTilda, Initial residual = 4.81634e-05, Final residual = 1.92031e-08, No Iterations 2
ExecutionTime = 141.32 s  ClockTime = 142 s

forceCoeffs forces write:
    Cm    = 0.10551
    Cd    = 0.21102
    Cl    = 0.00596448
    Cl(f) = 0.108492
    Cl(r) = -0.102528

Time = 1.26

Courant Number mean: 0.0136376 max: 0.362564
smoothSolver:  Solving for Ux, Initial residual = 0.0008356, Final residual = 1.47686e-09, No Iterations 2
smoothSolver:  Solving for Uy, Initial residual = 0.000665874, Final residual = 1.12168e-09, No Iterations 2
smoothSolver:  Solving for Uz, Initial residual = 0.241389, Final residual = 8.10137e-08, No Iterations 2
GAMG:  Solving for p, Initial residual = 0.0250498, Final residual = 0.0010516, No Iterations 10
time step continuity errors : sum local = 8.91332e-09, global = 1.82201e-09, cumulative = -8.75597e-07
GAMG:  Solving for p, Initial residual = 0.00112479, Final residual = 4.88364e-05, No Iterations 22
time step continuity errors : sum local = 3.96235e-10, global = 1.02457e-10, cumulative = -8.75495e-07
GAMG:  Solving for p, Initial residual = 4.76449e-05, Final residual = 8.72843e-07, No Iterations 30
time step continuity errors : sum local = 7.02954e-12, global = 1.78906e-12, cumulative = -8.75493e-07
smoothSolver:  Solving for nuTilda, Initial residual = 4.7287e-05, Final residual = 1.92761e-08, No Iterations 2
ExecutionTime = 144.63 s  ClockTime = 146 s

forceCoeffs forces write:
    Cm    = 0.0972346
    Cd    = 0.194469
    Cl    = -0.00248428
    Cl(f) = 0.0959924
    Cl(r) = -0.0984767

Time = 1.29

Courant Number mean: 0.0136412 max: 0.362786
smoothSolver:  Solving for Ux, Initial residual = 0.000802293, Final residual = 1.38642e-09, No Iterations 2
smoothSolver:  Solving for Uy, Initial residual = 0.000659145, Final residual = 1.11289e-09, No Iterations 2
smoothSolver:  Solving for Uz, Initial residual = 0.268248, Final residual = 4.82108e-10, No Iterations 3
GAMG:  Solving for p, Initial residual = 0.0264339, Final residual = 0.00119864, No Iterations 5
time step continuity errors : sum local = 9.60612e-09, global = -2.71896e-09, cumulative = -8.78212e-07
GAMG:  Solving for p, Initial residual = 0.00121945, Final residual = 5.31371e-05, No Iterations 22
time step continuity errors : sum local = 4.25596e-10, global = -1.17782e-10, cumulative = -8.78329e-07
GAMG:  Solving for p, Initial residual = 5.16832e-05, Final residual = 7.8598e-07, No Iterations 32
time step continuity errors : sum local = 6.3264e-12, global = -1.61973e-12, cumulative = -8.78331e-07
smoothSolver:  Solving for nuTilda, Initial residual = 4.63805e-05, Final residual = 1.93004e-08, No Iterations 2
ExecutionTime = 148.11 s  ClockTime = 149 s

forceCoeffs forces write:
    Cm    = 0.0990456
    Cd    = 0.198091
    Cl    = 0.00019606
    Cl(f) = 0.0991436
    Cl(r) = -0.0989476

Time = 1.32

Courant Number mean: 0.0136448 max: 0.363002
smoothSolver:  Solving for Ux, Initial residual = 0.000807054, Final residual = 1.40645e-09, No Iterations 2
smoothSolver:  Solving for Uy, Initial residual = 0.000644063, Final residual = 1.09789e-09, No Iterations 2
smoothSolver:  Solving for Uz, Initial residual = 0.253442, Final residual = 8.85106e-08, No Iterations 2
GAMG:  Solving for p, Initial residual = 0.0264531, Final residual = 0.000848205, No Iterations 5
time step continuity errors : sum local = 6.803e-09, global = -2.07878e-09, cumulative = -8.8041e-07
GAMG:  Solving for p, Initial residual = 0.000866749, Final residual = 4.00733e-05, No Iterations 18
time step continuity errors : sum local = 3.23033e-10, global = -7.90013e-11, cumulative = -8.80489e-07
GAMG:  Solving for p, Initial residual = 3.92564e-05, Final residual = 8.50285e-07, No Iterations 30
time step continuity errors : sum local = 6.91242e-12, global = -1.93475e-12, cumulative = -8.80491e-07
smoothSolver:  Solving for nuTilda, Initial residual = 4.54512e-05, Final residual = 1.93745e-08, No Iterations 2
ExecutionTime = 151.12 s  ClockTime = 152 s

forceCoeffs forces write:
    Cm    = 0.101454
    Cd    = 0.202909
    Cl    = -0.000935249
    Cl(f) = 0.100987
    Cl(r) = -0.101922

Time = 1.35

Courant Number mean: 0.0136485 max: 0.36333
smoothSolver:  Solving for Ux, Initial residual = 0.000817385, Final residual = 1.44055e-09, No Iterations 2
smoothSolver:  Solving for Uy, Initial residual = 0.000639457, Final residual = 1.08977e-09, No Iterations 2
smoothSolver:  Solving for Uz, Initial residual = 0.251028, Final residual = 9.34809e-08, No Iterations 2
GAMG:  Solving for p, Initial residual = 0.0263334, Final residual = 0.00115543, No Iterations 8
time step continuity errors : sum local = 9.35253e-09, global = 1.74992e-09, cumulative = -8.78741e-07
GAMG:  Solving for p, Initial residual = 0.00122988, Final residual = 5.24422e-05, No Iterations 22
time step continuity errors : sum local = 4.07677e-10, global = 1.07778e-10, cumulative = -8.78633e-07
GAMG:  Solving for p, Initial residual = 5.17144e-05, Final residual = 9.52447e-07, No Iterations 32
time step continuity errors : sum local = 7.31697e-12, global = 2.04048e-12, cumulative = -8.78631e-07
smoothSolver:  Solving for nuTilda, Initial residual = 4.45114e-05, Final residual = 1.9352e-08, No Iterations 2
ExecutionTime = 154.44 s  ClockTime = 155 s

forceCoeffs forces write:
    Cm    = 0.0931302
    Cd    = 0.18626
    Cl    = -0.000845643
    Cl(f) = 0.0927073
    Cl(r) = -0.093553

Time = 1.38

Courant Number mean: 0.0136519 max: 0.363776
smoothSolver:  Solving for Ux, Initial residual = 0.000780454, Final residual = 1.33863e-09, No Iterations 2
smoothSolver:  Solving for Uy, Initial residual = 0.000645653, Final residual = 1.09063e-09, No Iterations 2
smoothSolver:  Solving for Uz, Initial residual = 0.246952, Final residual = 8.33771e-08, No Iterations 2
GAMG:  Solving for p, Initial residual = 0.0273975, Final residual = 0.00110739, No Iterations 6
time step continuity errors : sum local = 8.47191e-09, global = -2.13139e-09, cumulative = -8.80762e-07
GAMG:  Solving for p, Initial residual = 0.00110387, Final residual = 5.05096e-05, No Iterations 20
time step continuity errors : sum local = 3.95673e-10, global = -1.03904e-10, cumulative = -8.80866e-07
GAMG:  Solving for p, Initial residual = 4.8928e-05, Final residual = 8.99699e-07, No Iterations 32
time step continuity errors : sum local = 7.14292e-12, global = -2.03873e-12, cumulative = -8.80868e-07
smoothSolver:  Solving for nuTilda, Initial residual = 4.35705e-05, Final residual = 1.93379e-08, No Iterations 2
ExecutionTime = 157.7 s  ClockTime = 159 s

forceCoeffs forces write:
    Cm    = 0.0990477
    Cd    = 0.198095
    Cl    = -0.00293742
    Cl(f) = 0.0975789
    Cl(r) = -0.100516

Time = 1.41

Courant Number mean: 0.0136556 max: 0.364226
smoothSolver:  Solving for Ux, Initial residual = 0.000801369, Final residual = 1.40967e-09, No Iterations 2
smoothSolver:  Solving for Uy, Initial residual = 0.000650205, Final residual = 1.08443e-09, No Iterations 2
smoothSolver:  Solving for Uz, Initial residual = 0.259404, Final residual = 8.18837e-08, No Iterations 2
GAMG:  Solving for p, Initial residual = 0.0265139, Final residual = 0.00115143, No Iterations 6
time step continuity errors : sum local = 9.11061e-09, global = 3.07076e-09, cumulative = -8.77798e-07
GAMG:  Solving for p, Initial residual = 0.0011769, Final residual = 4.86285e-05, No Iterations 23
time step continuity errors : sum local = 3.83695e-10, global = -1.20875e-10, cumulative = -8.77919e-07
GAMG:  Solving for p, Initial residual = 4.80025e-05, Final residual = 8.28237e-07, No Iterations 32
time step continuity errors : sum local = 6.53961e-12, global = -1.90434e-12, cumulative = -8.7792e-07
smoothSolver:  Solving for nuTilda, Initial residual = 4.26344e-05, Final residual = 1.93276e-08, No Iterations 2
ExecutionTime = 161.19 s  ClockTime = 162 s

forceCoeffs forces write:
    Cm    = 0.0997759
    Cd    = 0.199552
    Cl    = 0.00139358
    Cl(f) = 0.100473
    Cl(r) = -0.0990791

Time = 1.44

Courant Number mean: 0.0136593 max: 0.364676
smoothSolver:  Solving for Ux, Initial residual = 0.000805915, Final residual = 1.42371e-09, No Iterations 2
smoothSolver:  Solving for Uy, Initial residual = 0.000638633, Final residual = 1.07232e-09, No Iterations 2
smoothSolver:  Solving for Uz, Initial residual = 0.253225, Final residual = 6.83036e-08, No Iterations 2
GAMG:  Solving for p, Initial residual = 0.0261536, Final residual = 0.00129494, No Iterations 6
time step continuity errors : sum local = 1.01867e-08, global = 2.44958e-09, cumulative = -8.75471e-07
GAMG:  Solving for p, Initial residual = 0.00135274, Final residual = 5.77097e-05, No Iterations 20
time step continuity errors : sum local = 4.4087e-10, global = 1.03911e-10, cumulative = -8.75367e-07
GAMG:  Solving for p, Initial residual = 5.72073e-05, Final residual = 7.86302e-07, No Iterations 32
time step continuity errors : sum local = 5.90453e-12, global = 1.49531e-12, cumulative = -8.75365e-07
smoothSolver:  Solving for nuTilda, Initial residual = 4.17122e-05, Final residual = 1.92793e-08, No Iterations 2
ExecutionTime = 164.36 s  ClockTime = 165 s

forceCoeffs forces write:
    Cm    = 0.0931118
    Cd    = 0.186223
    Cl    = 0.000197677
    Cl(f) = 0.0932106
    Cl(r) = -0.0930129

Time = 1.47

Courant Number mean: 0.0136628 max: 0.365118
smoothSolver:  Solving for Ux, Initial residual = 0.000777234, Final residual = 1.34056e-09, No Iterations 2
smoothSolver:  Solving for Uy, Initial residual = 0.000634297, Final residual = 1.07011e-09, No Iterations 2
smoothSolver:  Solving for Uz, Initial residual = 0.243947, Final residual = 7.46713e-08, No Iterations 2
GAMG:  Solving for p, Initial residual = 0.0278457, Final residual = 0.00122982, No Iterations 4
time step continuity errors : sum local = 9.19675e-09, global = 1.82887e-09, cumulative = -8.73537e-07
GAMG:  Solving for p, Initial residual = 0.00124865, Final residual = 4.97582e-05, No Iterations 17
time step continuity errors : sum local = 3.72659e-10, global = -1.04564e-10, cumulative = -8.73641e-07
GAMG:  Solving for p, Initial residual = 4.9524e-05, Final residual = 9.74553e-07, No Iterations 32
time step continuity errors : sum local = 7.32161e-12, global = -2.34429e-12, cumulative = -8.73644e-07
smoothSolver:  Solving for nuTilda, Initial residual = 4.08203e-05, Final residual = 1.91703e-08, No Iterations 2
ExecutionTime = 167.46 s  ClockTime = 168 s

forceCoeffs forces write:
    Cm    = 0.0939101
    Cd    = 0.18782
    Cl    = -0.0023671
    Cl(f) = 0.0927265
    Cl(r) = -0.0950936

Time = 1.5

Courant Number mean: 0.0136662 max: 0.365556
smoothSolver:  Solving for Ux, Initial residual = 0.000777669, Final residual = 1.34772e-09, No Iterations 2
smoothSolver:  Solving for Uy, Initial residual = 0.000636194, Final residual = 1.06506e-09, No Iterations 2
smoothSolver:  Solving for Uz, Initial residual = 0.25165, Final residual = 7.50517e-08, No Iterations 2
GAMG:  Solving for p, Initial residual = 0.027404, Final residual = 0.00117437, No Iterations 5
time step continuity errors : sum local = 8.79621e-09, global = -2.23117e-09, cumulative = -8.75875e-07
GAMG:  Solving for p, Initial residual = 0.00118685, Final residual = 5.92509e-05, No Iterations 20
time step continuity errors : sum local = 4.46581e-10, global = -1.10373e-10, cumulative = -8.75985e-07
GAMG:  Solving for p, Initial residual = 5.73992e-05, Final residual = 8.14198e-07, No Iterations 32
time step continuity errors : sum local = 6.19144e-12, global = -1.54838e-12, cumulative = -8.75987e-07
smoothSolver:  Solving for nuTilda, Initial residual = 3.99771e-05, Final residual = 1.90277e-08, No Iterations 2
ExecutionTime = 170.61 s  ClockTime = 172 s

forceCoeffs forces write:
    Cm    = 0.0970564
    Cd    = 0.194113
    Cl    = 0.000639208
    Cl(f) = 0.097376
    Cl(r) = -0.0967368

Time = 1.53

Courant Number mean: 0.0136698 max: 0.365997
smoothSolver:  Solving for Ux, Initial residual = 0.000788364, Final residual = 1.38537e-09, No Iterations 2
smoothSolver:  Solving for Uy, Initial residual = 0.000627309, Final residual = 1.05352e-09, No Iterations 2
smoothSolver:  Solving for Uz, Initial residual = 0.231911, Final residual = 7.44791e-08, No Iterations 2
GAMG:  Solving for p, Initial residual = 0.026721, Final residual = 0.000995988, No Iterations 6
time step continuity errors : sum local = 7.55247e-09, global = 2.23698e-09, cumulative = -8.7375e-07
GAMG:  Solving for p, Initial residual = 0.00102873, Final residual = 4.04673e-05, No Iterations 22
time step continuity errors : sum local = 3.04061e-10, global = 8.08079e-11, cumulative = -8.73669e-07
GAMG:  Solving for p, Initial residual = 3.96729e-05, Final residual = 9.09451e-07, No Iterations 28
time step continuity errors : sum local = 6.7944e-12, global = 1.75169e-12, cumulative = -8.73667e-07
smoothSolver:  Solving for nuTilda, Initial residual = 3.91888e-05, Final residual = 1.89015e-08, No Iterations 2
ExecutionTime = 173.73 s  ClockTime = 175 s

forceCoeffs forces write:
    Cm    = 0.0947703
    Cd    = 0.18954
    Cl    = -0.00196518
    Cl(f) = 0.0937877
    Cl(r) = -0.0957529

Time = 1.56

Courant Number mean: 0.0136734 max: 0.366435
smoothSolver:  Solving for Ux, Initial residual = 0.000780415, Final residual = 1.3593e-09, No Iterations 2
smoothSolver:  Solving for Uy, Initial residual = 0.00063083, Final residual = 1.053e-09, No Iterations 2
smoothSolver:  Solving for Uz, Initial residual = 0.247969, Final residual = 8.32994e-08, No Iterations 2
GAMG:  Solving for p, Initial residual = 0.0268928, Final residual = 0.00103045, No Iterations 6
time step continuity errors : sum local = 7.66787e-09, global = 1.93261e-09, cumulative = -8.71734e-07
GAMG:  Solving for p, Initial residual = 0.00106599, Final residual = 4.26786e-05, No Iterations 20
time step continuity errors : sum local = 3.13948e-10, global = 8.56872e-11, cumulative = -8.71649e-07
GAMG:  Solving for p, Initial residual = 4.21928e-05, Final residual = 9.31993e-07, No Iterations 28
time step continuity errors : sum local = 6.83189e-12, global = 2.04384e-12, cumulative = -8.71647e-07
smoothSolver:  Solving for nuTilda, Initial residual = 3.84587e-05, Final residual = 1.85657e-08, No Iterations 2
ExecutionTime = 177.06 s  ClockTime = 178 s

forceCoeffs forces write:
    Cm    = 0.0935357
    Cd    = 0.187072
    Cl    = -0.0010012
    Cl(f) = 0.0930351
    Cl(r) = -0.0940363

Time = 1.59

Courant Number mean: 0.0136769 max: 0.36687
smoothSolver:  Solving for Ux, Initial residual = 0.000775221, Final residual = 1.34294e-09, No Iterations 2
smoothSolver:  Solving for Uy, Initial residual = 0.000619637, Final residual = 1.04416e-09, No Iterations 2
smoothSolver:  Solving for Uz, Initial residual = 0.25012, Final residual = 9.48697e-08, No Iterations 2
GAMG:  Solving for p, Initial residual = 0.0278271, Final residual = 0.00128289, No Iterations 4
time step continuity errors : sum local = 9.37282e-09, global = 1.49508e-09, cumulative = -8.70152e-07
GAMG:  Solving for p, Initial residual = 0.0013103, Final residual = 6.53006e-05, No Iterations 20
time step continuity errors : sum local = 4.74098e-10, global = 1.69745e-10, cumulative = -8.69982e-07
GAMG:  Solving for p, Initial residual = 6.48387e-05, Final residual = 8.04067e-07, No Iterations 38
time step continuity errors : sum local = 5.83089e-12, global = 1.92171e-12, cumulative = -8.6998e-07
smoothSolver:  Solving for nuTilda, Initial residual = 3.77828e-05, Final residual = 1.76604e-08, No Iterations 2
ExecutionTime = 180.41 s  ClockTime = 182 s

forceCoeffs forces write:
    Cm    = 0.0924202
    Cd    = 0.18484
    Cl    = 0.0013419
    Cl(f) = 0.0930912
    Cl(r) = -0.0917493

Time = 1.62

Courant Number mean: 0.0136803 max: 0.367302
smoothSolver:  Solving for Ux, Initial residual = 0.00076417, Final residual = 1.32512e-09, No Iterations 2
smoothSolver:  Solving for Uy, Initial residual = 0.000624504, Final residual = 1.04167e-09, No Iterations 2
smoothSolver:  Solving for Uz, Initial residual = 0.248069, Final residual = 7.53596e-08, No Iterations 2
GAMG:  Solving for p, Initial residual = 0.0276243, Final residual = 0.0013516, No Iterations 4
time step continuity errors : sum local = 9.76463e-09, global = 1.36401e-09, cumulative = -8.68616e-07
GAMG:  Solving for p, Initial residual = 0.00137637, Final residual = 6.80919e-05, No Iterations 20
time step continuity errors : sum local = 4.91018e-10, global = 1.90207e-10, cumulative = -8.68426e-07
GAMG:  Solving for p, Initial residual = 6.75966e-05, Final residual = 8.91548e-07, No Iterations 37
time step continuity errors : sum local = 6.43958e-12, global = -2.18032e-12, cumulative = -8.68428e-07
smoothSolver:  Solving for nuTilda, Initial residual = 3.71642e-05, Final residual = 1.70391e-08, No Iterations 2
ExecutionTime = 183.71 s  ClockTime = 185 s

forceCoeffs forces write:
    Cm    = 0.0929353
    Cd    = 0.185871
    Cl    = -0.00183091
    Cl(f) = 0.0920199
    Cl(r) = -0.0938508

Time = 1.65

Courant Number mean: 0.0136838 max: 0.367732
smoothSolver:  Solving for Ux, Initial residual = 0.000765306, Final residual = 1.33057e-09, No Iterations 2
smoothSolver:  Solving for Uy, Initial residual = 0.000621185, Final residual = 1.0354e-09, No Iterations 2
smoothSolver:  Solving for Uz, Initial residual = 0.224489, Final residual = 6.83574e-08, No Iterations 2
GAMG:  Solving for p, Initial residual = 0.0280989, Final residual = 0.00111289, No Iterations 5
time step continuity errors : sum local = 8.01723e-09, global = -2.57497e-09, cumulative = -8.71003e-07
GAMG:  Solving for p, Initial residual = 0.00113371, Final residual = 4.60162e-05, No Iterations 20
time step continuity errors : sum local = 3.3316e-10, global = -8.38705e-11, cumulative = -8.71087e-07
GAMG:  Solving for p, Initial residual = 4.47515e-05, Final residual = 9.29343e-07, No Iterations 28
time step continuity errors : sum local = 6.77709e-12, global = -1.72912e-12, cumulative = -8.71089e-07
smoothSolver:  Solving for nuTilda, Initial residual = 3.66046e-05, Final residual = 1.69489e-08, No Iterations 2
ExecutionTime = 187.05 s  ClockTime = 188 s

forceCoeffs forces write:
    Cm    = 0.0951209
    Cd    = 0.190242
    Cl    = -0.0008248
    Cl(f) = 0.0947085
    Cl(r) = -0.0955333

Time = 1.68

Courant Number mean: 0.0136873 max: 0.368165
smoothSolver:  Solving for Ux, Initial residual = 0.000773098, Final residual = 1.35733e-09, No Iterations 2
smoothSolver:  Solving for Uy, Initial residual = 0.000620233, Final residual = 1.02649e-09, No Iterations 2
smoothSolver:  Solving for Uz, Initial residual = 0.252611, Final residual = 7.84871e-08, No Iterations 2
GAMG:  Solving for p, Initial residual = 0.0275406, Final residual = 0.00100824, No Iterations 6
time step continuity errors : sum local = 7.33034e-09, global = 1.80676e-09, cumulative = -8.69282e-07
GAMG:  Solving for p, Initial residual = 0.0010405, Final residual = 4.68141e-05, No Iterations 18
time step continuity errors : sum local = 3.37535e-10, global = 8.42285e-11, cumulative = -8.69198e-07
GAMG:  Solving for p, Initial residual = 4.6203e-05, Final residual = 8.04549e-07, No Iterations 26
time step continuity errors : sum local = 5.78278e-12, global = 1.29781e-12, cumulative = -8.69196e-07
smoothSolver:  Solving for nuTilda, Initial residual = 3.60889e-05, Final residual = 1.70134e-08, No Iterations 2
ExecutionTime = 190.06 s  ClockTime = 191 s

forceCoeffs forces write:
    Cm    = 0.0939551
    Cd    = 0.18791
    Cl    = 0.000626795
    Cl(f) = 0.0942685
    Cl(r) = -0.0936417

Time = 1.71

Courant Number mean: 0.0136908 max: 0.368597
smoothSolver:  Solving for Ux, Initial residual = 0.000770955, Final residual = 1.34398e-09, No Iterations 2
smoothSolver:  Solving for Uy, Initial residual = 0.000613493, Final residual = 1.02512e-09, No Iterations 2
smoothSolver:  Solving for Uz, Initial residual = 0.253775, Final residual = 3.95615e-10, No Iterations 3
GAMG:  Solving for p, Initial residual = 0.028404, Final residual = 0.00141368, No Iterations 4
time step continuity errors : sum local = 1.01286e-08, global = 1.84829e-09, cumulative = -8.67348e-07
GAMG:  Solving for p, Initial residual = 0.00145111, Final residual = 6.99055e-05, No Iterations 18
time step continuity errors : sum local = 4.93773e-10, global = 1.19948e-10, cumulative = -8.67228e-07
GAMG:  Solving for p, Initial residual = 6.98721e-05, Final residual = 8.05085e-07, No Iterations 34
time step continuity errors : sum local = 5.63606e-12, global = 1.44954e-12, cumulative = -8.67227e-07
smoothSolver:  Solving for nuTilda, Initial residual = 3.56181e-05, Final residual = 1.70031e-08, No Iterations 2
ExecutionTime = 193.26 s  ClockTime = 194 s

forceCoeffs forces write:
    Cm    = 0.0912059
    Cd    = 0.182412
    Cl    = -0.00123526
    Cl(f) = 0.0905882
    Cl(r) = -0.0918235

Time = 1.74

Courant Number mean: 0.0136943 max: 0.369024
smoothSolver:  Solving for Ux, Initial residual = 0.00075575, Final residual = 1.30738e-09, No Iterations 2
smoothSolver:  Solving for Uy, Initial residual = 0.000610841, Final residual = 1.01933e-09, No Iterations 2
smoothSolver:  Solving for Uz, Initial residual = 0.253877, Final residual = 6.68194e-08, No Iterations 2
GAMG:  Solving for p, Initial residual = 0.0284519, Final residual = 0.00140254, No Iterations 4
time step continuity errors : sum local = 9.78538e-09, global = -9.11712e-10, cumulative = -8.68138e-07
GAMG:  Solving for p, Initial residual = 0.00140099, Final residual = 5.20605e-05, No Iterations 16
time step continuity errors : sum local = 3.69118e-10, global = -8.24622e-11, cumulative = -8.68221e-07
GAMG:  Solving for p, Initial residual = 5.10848e-05, Final residual = 8.49247e-07, No Iterations 30
time step continuity errors : sum local = 6.04829e-12, global = -1.48088e-12, cumulative = -8.68222e-07
smoothSolver:  Solving for nuTilda, Initial residual = 3.51735e-05, Final residual = 1.70585e-08, No Iterations 2
ExecutionTime = 196.18 s  ClockTime = 197 s

forceCoeffs forces write:
    Cm    = 0.0942847
    Cd    = 0.18857
    Cl    = 0.00184995
    Cl(f) = 0.0952097
    Cl(r) = -0.0933597

Time = 1.77

Courant Number mean: 0.0136978 max: 0.369454
smoothSolver:  Solving for Ux, Initial residual = 0.000768193, Final residual = 1.34083e-09, No Iterations 2
smoothSolver:  Solving for Uy, Initial residual = 0.000611631, Final residual = 1.01689e-09, No Iterations 2
smoothSolver:  Solving for Uz, Initial residual = 0.234984, Final residual = 7.57339e-08, No Iterations 2
GAMG:  Solving for p, Initial residual = 0.0277567, Final residual = 0.0010596, No Iterations 6
time step continuity errors : sum local = 7.52962e-09, global = 1.98218e-09, cumulative = -8.6624e-07
GAMG:  Solving for p, Initial residual = 0.00110834, Final residual = 4.7341e-05, No Iterations 22
time step continuity errors : sum local = 3.29024e-10, global = 8.53452e-11, cumulative = -8.66155e-07
GAMG:  Solving for p, Initial residual = 4.66645e-05, Final residual = 8.02612e-07, No Iterations 32
time step continuity errors : sum local = 5.50886e-12, global = 1.49191e-12, cumulative = -8.66153e-07
smoothSolver:  Solving for nuTilda, Initial residual = 3.47488e-05, Final residual = 1.68795e-08, No Iterations 2
ExecutionTime = 199.45 s  ClockTime = 201 s

forceCoeffs forces write:
    Cm    = 0.0897298
    Cd    = 0.17946
    Cl    = 0.000133085
    Cl(f) = 0.0897964
    Cl(r) = -0.0896633

Time = 1.8

Courant Number mean: 0.0137011 max: 0.369879
smoothSolver:  Solving for Ux, Initial residual = 0.000744794, Final residual = 1.2833e-09, No Iterations 2
smoothSolver:  Solving for Uy, Initial residual = 0.000616059, Final residual = 1.01432e-09, No Iterations 2
smoothSolver:  Solving for Uz, Initial residual = 0.232984, Final residual = 6.52964e-08, No Iterations 2
GAMG:  Solving for p, Initial residual = 0.0294328, Final residual = 0.00119178, No Iterations 4
time step continuity errors : sum local = 8.15312e-09, global = 1.21294e-09, cumulative = -8.6494e-07
GAMG:  Solving for p, Initial residual = 0.00122344, Final residual = 5.48134e-05, No Iterations 18
time step continuity errors : sum local = 3.72074e-10, global = 1.0537e-10, cumulative = -8.64835e-07
GAMG:  Solving for p, Initial residual = 5.45674e-05, Final residual = 8.97078e-07, No Iterations 32
time step continuity errors : sum local = 6.07209e-12, global = 1.71608e-12, cumulative = -8.64833e-07
smoothSolver:  Solving for nuTilda, Initial residual = 3.43373e-05, Final residual = 1.67296e-08, No Iterations 2
ExecutionTime = 202.51 s  ClockTime = 204 s

forceCoeffs forces write:
    Cm    = 0.088782
    Cd    = 0.177564
    Cl    = -0.00211589
    Cl(f) = 0.087724
    Cl(r) = -0.0898399

Time = 1.83

Courant Number mean: 0.0137044 max: 0.370302
smoothSolver:  Solving for Ux, Initial residual = 0.000735512, Final residual = 1.2664e-09, No Iterations 2
smoothSolver:  Solving for Uy, Initial residual = 0.000614363, Final residual = 1.01085e-09, No Iterations 2
smoothSolver:  Solving for Uz, Initial residual = 0.228027, Final residual = 8.76036e-08, No Iterations 2
[...]
smoothSolver:  Solving for Ux, Initial residual = 0.000221042, Final residual = 6.7124e-08, No Iterations 1
smoothSolver:  Solving for Uy, Initial residual = 0.000276063, Final residual = 1.05195e-09, No Iterations 2
smoothSolver:  Solving for Uz, Initial residual = 0.122021, Final residual = 3.18235e-08, No Iterations 2
GAMG:  Solving for p, Initial residual = 0.110636, Final residual = 0.00543473, No Iterations 4
time step continuity errors : sum local = 9.02155e-09, global = -8.15608e-10, cumulative = -8.73996e-07
GAMG:  Solving for p, Initial residual = 0.00570695, Final residual = 0.000233505, No Iterations 15
time step continuity errors : sum local = 3.77743e-10, global = 9.68421e-11, cumulative = -8.739e-07
GAMG:  Solving for p, Initial residual = 0.000242709, Final residual = 9.07737e-07, No Iterations 46
time step continuity errors : sum local = 1.45484e-12, global = 4.37533e-13, cumulative = -8.73899e-07
smoothSolver:  Solving for nuTilda, Initial residual = 1.31811e-05, Final residual = 4.99146e-08, No Iterations 1
ExecutionTime = 4093.29 s  ClockTime = 4112 s

forceCoeffs forces write:
    Cm    = 0.334243
    Cd    = 0.668488
    Cl    = 0.000755694
    Cl(f) = 0.334621
    Cl(r) = -0.333865

Time = 34.59

Courant Number mean: 0.0156701 max: 0.604445
smoothSolver:  Solving for Ux, Initial residual = 0.000217691, Final residual = 6.41722e-08, No Iterations 1
smoothSolver:  Solving for Uy, Initial residual = 0.000291477, Final residual = 1.05299e-09, No Iterations 2
smoothSolver:  Solving for Uz, Initial residual = 0.137272, Final residual = 3.33821e-08, No Iterations 2
GAMG:  Solving for p, Initial residual = 0.111747, Final residual = 0.00503971, No Iterations 4
time step continuity errors : sum local = 8.06061e-09, global = -9.45729e-10, cumulative = -8.74845e-07
GAMG:  Solving for p, Initial residual = 0.00517811, Final residual = 0.000230635, No Iterations 15
time step continuity errors : sum local = 3.6854e-10, global = 1.14403e-10, cumulative = -8.74731e-07
GAMG:  Solving for p, Initial residual = 0.000237836, Final residual = 9.91172e-07, No Iterations 44
time step continuity errors : sum local = 1.58172e-12, global = 5.57006e-13, cumulative = -8.7473e-07
smoothSolver:  Solving for nuTilda, Initial residual = 1.31677e-05, Final residual = 4.97596e-08, No Iterations 1
ExecutionTime = 4096.62 s  ClockTime = 4116 s

forceCoeffs forces write:
    Cm    = 0.334108
    Cd    = 0.668218
    Cl    = -0.00107992
    Cl(f) = 0.333568
    Cl(r) = -0.334648

Time = 34.62

Courant Number mean: 0.015671 max: 0.604419
smoothSolver:  Solving for Ux, Initial residual = 0.000215636, Final residual = 6.39136e-08, No Iterations 1
smoothSolver:  Solving for Uy, Initial residual = 0.000287601, Final residual = 1.05312e-09, No Iterations 2
smoothSolver:  Solving for Uz, Initial residual = 0.130498, Final residual = 3.05507e-08, No Iterations 2
GAMG:  Solving for p, Initial residual = 0.112503, Final residual = 0.00483465, No Iterations 4
time step continuity errors : sum local = 7.72499e-09, global = -1.22635e-09, cumulative = -8.75956e-07
GAMG:  Solving for p, Initial residual = 0.00493788, Final residual = 0.000190741, No Iterations 16
time step continuity errors : sum local = 3.05969e-10, global = -6.82351e-11, cumulative = -8.76025e-07
GAMG:  Solving for p, Initial residual = 0.000194925, Final residual = 9.04583e-07, No Iterations 38
time step continuity errors : sum local = 1.45949e-12, global = -3.57635e-13, cumulative = -8.76025e-07
smoothSolver:  Solving for nuTilda, Initial residual = 1.31561e-05, Final residual = 4.96155e-08, No Iterations 1
ExecutionTime = 4099.84 s  ClockTime = 4119 s

forceCoeffs forces write:
    Cm    = 0.334783
    Cd    = 0.669569
    Cl    = -0.00049462
    Cl(f) = 0.334536
    Cl(r) = -0.335031

Time = 34.65

Courant Number mean: 0.0156719 max: 0.604393
smoothSolver:  Solving for Ux, Initial residual = 0.000217274, Final residual = 6.49652e-08, No Iterations 1
smoothSolver:  Solving for Uy, Initial residual = 0.000285973, Final residual = 1.04535e-09, No Iterations 2
smoothSolver:  Solving for Uz, Initial residual = 0.127811, Final residual = 3.12059e-08, No Iterations 2
GAMG:  Solving for p, Initial residual = 0.110493, Final residual = 0.00450655, No Iterations 6
time step continuity errors : sum local = 7.27833e-09, global = -1.5987e-09, cumulative = -8.77624e-07
GAMG:  Solving for p, Initial residual = 0.0043663, Final residual = 0.000197359, No Iterations 24
time step continuity errors : sum local = 3.39385e-10, global = -1.0618e-10, cumulative = -8.7773e-07
GAMG:  Solving for p, Initial residual = 0.000196306, Final residual = 8.75606e-07, No Iterations 46
time step continuity errors : sum local = 1.54516e-12, global = -4.76719e-13, cumulative = -8.7773e-07
smoothSolver:  Solving for nuTilda, Initial residual = 1.31404e-05, Final residual = 4.94605e-08, No Iterations 1
ExecutionTime = 4103.77 s  ClockTime = 4123 s

forceCoeffs forces write:
    Cm    = 0.33832
    Cd    = 0.67664
    Cl    = -0.00461841
    Cl(f) = 0.33601
    Cl(r) = -0.340629

Time = 34.68

Courant Number mean: 0.0156731 max: 0.604369
smoothSolver:  Solving for Ux, Initial residual = 0.000233734, Final residual = 7.05956e-08, No Iterations 1
smoothSolver:  Solving for Uy, Initial residual = 0.000282392, Final residual = 1.05472e-09, No Iterations 2
smoothSolver:  Solving for Uz, Initial residual = 0.132609, Final residual = 3.00605e-08, No Iterations 2
GAMG:  Solving for p, Initial residual = 0.103314, Final residual = 0.00481091, No Iterations 6
time step continuity errors : sum local = 8.51567e-09, global = 2.5763e-09, cumulative = -8.75154e-07
GAMG:  Solving for p, Initial residual = 0.00522014, Final residual = 0.000246665, No Iterations 24
time step continuity errors : sum local = 4.11553e-10, global = 1.32302e-10, cumulative = -8.75022e-07
GAMG:  Solving for p, Initial residual = 0.000258239, Final residual = 9.37858e-07, No Iterations 48
time step continuity errors : sum local = 1.51233e-12, global = 4.7375e-13, cumulative = -8.75021e-07
smoothSolver:  Solving for nuTilda, Initial residual = 1.31232e-05, Final residual = 4.93015e-08, No Iterations 1
ExecutionTime = 4107.57 s  ClockTime = 4127 s

forceCoeffs forces write:
    Cm    = 0.334767
    Cd    = 0.669536
    Cl    = 0.00197607
    Cl(f) = 0.335755
    Cl(r) = -0.333779

Time = 34.71

Courant Number mean: 0.0156741 max: 0.604344
smoothSolver:  Solving for Ux, Initial residual = 0.00021867, Final residual = 6.54873e-08, No Iterations 1
smoothSolver:  Solving for Uy, Initial residual = 0.000279936, Final residual = 1.03349e-09, No Iterations 2
smoothSolver:  Solving for Uz, Initial residual = 0.134562, Final residual = 3.11242e-08, No Iterations 2
GAMG:  Solving for p, Initial residual = 0.114658, Final residual = 0.00387181, No Iterations 6
time step continuity errors : sum local = 6.2284e-09, global = -1.14619e-09, cumulative = -8.76167e-07
GAMG:  Solving for p, Initial residual = 0.0038209, Final residual = 0.000162441, No Iterations 20
time step continuity errors : sum local = 2.74814e-10, global = -7.45876e-11, cumulative = -8.76242e-07
GAMG:  Solving for p, Initial residual = 0.000163435, Final residual = 8.97933e-07, No Iterations 42
time step continuity errors : sum local = 1.56477e-12, global = -4.48856e-13, cumulative = -8.76242e-07
smoothSolver:  Solving for nuTilda, Initial residual = 1.31043e-05, Final residual = 4.91317e-08, No Iterations 1
ExecutionTime = 4111.12 s  ClockTime = 4130 s

forceCoeffs forces write:
    Cm    = 0.337549
    Cd    = 0.675097
    Cl    = 0.00148395
    Cl(f) = 0.338291
    Cl(r) = -0.336807

Time = 34.74

Courant Number mean: 0.0156752 max: 0.60432
smoothSolver:  Solving for Ux, Initial residual = 0.000228404, Final residual = 6.84648e-08, No Iterations 1
smoothSolver:  Solving for Uy, Initial residual = 0.00027285, Final residual = 1.03126e-09, No Iterations 2
smoothSolver:  Solving for Uz, Initial residual = 0.135222, Final residual = 2.88998e-08, No Iterations 2
GAMG:  Solving for p, Initial residual = 0.104571, Final residual = 0.00504028, No Iterations 10
time step continuity errors : sum local = 8.79117e-09, global = 1.59522e-09, cumulative = -8.74647e-07
GAMG:  Solving for p, Initial residual = 0.00481366, Final residual = 0.000217493, No Iterations 22
time step continuity errors : sum local = 4.06639e-10, global = 1.04513e-10, cumulative = -8.74543e-07
GAMG:  Solving for p, Initial residual = 0.000211286, Final residual = 7.81792e-07, No Iterations 44
time step continuity errors : sum local = 1.5257e-12, global = 4.1706e-13, cumulative = -8.74542e-07
smoothSolver:  Solving for nuTilda, Initial residual = 1.30819e-05, Final residual = 4.8969e-08, No Iterations 1
ExecutionTime = 4114.83 s  ClockTime = 4134 s

forceCoeffs forces write:
    Cm    = 0.326756
    Cd    = 0.653513
    Cl    = -0.00104945
    Cl(f) = 0.326231
    Cl(r) = -0.327281

Time = 34.77

Courant Number mean: 0.0156758 max: 0.604285
smoothSolver:  Solving for Ux, Initial residual = 0.000215713, Final residual = 5.80524e-08, No Iterations 1
smoothSolver:  Solving for Uy, Initial residual = 0.000312803, Final residual = 1.05347e-09, No Iterations 2
smoothSolver:  Solving for Uz, Initial residual = 0.114496, Final residual = 2.80263e-08, No Iterations 2
GAMG:  Solving for p, Initial residual = 0.091916, Final residual = 0.00432281, No Iterations 10
time step continuity errors : sum local = 8.45797e-09, global = -1.58864e-09, cumulative = -8.76131e-07
GAMG:  Solving for p, Initial residual = 0.00531188, Final residual = 0.00025439, No Iterations 22
time step continuity errors : sum local = 4.15791e-10, global = -1.10583e-10, cumulative = -8.76241e-07
GAMG:  Solving for p, Initial residual = 0.000248344, Final residual = 7.94408e-07, No Iterations 46
time step continuity errors : sum local = 1.34763e-12, global = -3.7871e-13, cumulative = -8.76242e-07
smoothSolver:  Solving for nuTilda, Initial residual = 1.30579e-05, Final residual = 4.87916e-08, No Iterations 1
ExecutionTime = 4119.06 s  ClockTime = 4138 s

forceCoeffs forces write:
    Cm    = 0.336741
    Cd    = 0.673483
    Cl    = -0.000323366
    Cl(f) = 0.336579
    Cl(r) = -0.336903

Time = 34.8

Courant Number mean: 0.0156767 max: 0.604256
smoothSolver:  Solving for Ux, Initial residual = 0.00022478, Final residual = 6.68863e-08, No Iterations 1
smoothSolver:  Solving for Uy, Initial residual = 0.000276938, Final residual = 1.0296e-09, No Iterations 2
smoothSolver:  Solving for Uz, Initial residual = 0.133512, Final residual = 2.75095e-08, No Iterations 2
GAMG:  Solving for p, Initial residual = 0.107466, Final residual = 0.0047071, No Iterations 4
time step continuity errors : sum local = 7.99672e-09, global = 1.24586e-09, cumulative = -8.74996e-07
GAMG:  Solving for p, Initial residual = 0.00492471, Final residual = 0.000197179, No Iterations 18
time step continuity errors : sum local = 3.28002e-10, global = 9.50269e-11, cumulative = -8.74901e-07
GAMG:  Solving for p, Initial residual = 0.000204926, Final residual = 8.45398e-07, No Iterations 46
time step continuity errors : sum local = 1.39018e-12, global = 4.32707e-13, cumulative = -8.74901e-07
smoothSolver:  Solving for nuTilda, Initial residual = 1.30337e-05, Final residual = 4.86059e-08, No Iterations 1
ExecutionTime = 4122.55 s  ClockTime = 4142 s

forceCoeffs forces write:
    Cm    = 0.335623
    Cd    = 0.671247
    Cl    = 0.000830047
    Cl(f) = 0.336038
    Cl(r) = -0.335208

Time = 34.83

Courant Number mean: 0.0156777 max: 0.604228
smoothSolver:  Solving for Ux, Initial residual = 0.000221333, Final residual = 6.66732e-08, No Iterations 1
smoothSolver:  Solving for Uy, Initial residual = 0.000272903, Final residual = 1.02349e-09, No Iterations 2
smoothSolver:  Solving for Uz, Initial residual = 0.126268, Final residual = 3.06766e-08, No Iterations 2
GAMG:  Solving for p, Initial residual = 0.108941, Final residual = 0.00535645, No Iterations 5
time step continuity errors : sum local = 8.80172e-09, global = -2.95221e-09, cumulative = -8.77853e-07
GAMG:  Solving for p, Initial residual = 0.0055456, Final residual = 0.00022307, No Iterations 21
time step continuity errors : sum local = 3.62971e-10, global = 1.11462e-10, cumulative = -8.77741e-07
GAMG:  Solving for p, Initial residual = 0.000227621, Final residual = 7.91215e-07, No Iterations 48
time step continuity errors : sum local = 1.30018e-12, global = 4.0013e-13, cumulative = -8.77741e-07
smoothSolver:  Solving for nuTilda, Initial residual = 1.30112e-05, Final residual = 4.83796e-08, No Iterations 1
ExecutionTime = 4126.21 s  ClockTime = 4145 s

forceCoeffs forces write:
    Cm    = 0.33296
    Cd    = 0.66592
    Cl    = 0.00342449
    Cl(f) = 0.334672
    Cl(r) = -0.331247

Time = 34.86

Courant Number mean: 0.0156786 max: 0.604197
smoothSolver:  Solving for Ux, Initial residual = 0.000215149, Final residual = 6.31387e-08, No Iterations 1
smoothSolver:  Solving for Uy, Initial residual = 0.000292277, Final residual = 1.03417e-09, No Iterations 2
smoothSolver:  Solving for Uz, Initial residual = 0.127869, Final residual = 2.83788e-08, No Iterations 2
GAMG:  Solving for p, Initial residual = 0.109986, Final residual = 0.00341378, No Iterations 5
time step continuity errors : sum local = 5.61357e-09, global = 1.41269e-09, cumulative = -8.76328e-07
GAMG:  Solving for p, Initial residual = 0.00354614, Final residual = 0.000170141, No Iterations 18
time step continuity errors : sum local = 2.82685e-10, global = 8.89191e-11, cumulative = -8.76239e-07
GAMG:  Solving for p, Initial residual = 0.000173898, Final residual = 8.91083e-07, No Iterations 42
time step continuity errors : sum local = 1.49479e-12, global = 4.57564e-13, cumulative = -8.76239e-07
smoothSolver:  Solving for nuTilda, Initial residual = 1.29927e-05, Final residual = 4.81493e-08, No Iterations 1
ExecutionTime = 4129.94 s  ClockTime = 4149 s

forceCoeffs forces write:
    Cm    = 0.33192
    Cd    = 0.663841
    Cl    = 0.000443435
    Cl(f) = 0.332142
    Cl(r) = -0.331698

Time = 34.89

Courant Number mean: 0.0156795 max: 0.604164
smoothSolver:  Solving for Ux, Initial residual = 0.000211844, Final residual = 6.18213e-08, No Iterations 1
smoothSolver:  Solving for Uy, Initial residual = 0.000290928, Final residual = 1.02866e-09, No Iterations 2
smoothSolver:  Solving for Uz, Initial residual = 0.12262, Final residual = 3.51542e-08, No Iterations 2
GAMG:  Solving for p, Initial residual = 0.106971, Final residual = 0.00463398, No Iterations 10
time step continuity errors : sum local = 7.78306e-09, global = -1.36488e-09, cumulative = -8.77604e-07
GAMG:  Solving for p, Initial residual = 0.0043121, Final residual = 0.000193987, No Iterations 22
time step continuity errors : sum local = 3.59916e-10, global = -9.82284e-11, cumulative = -8.77702e-07
GAMG:  Solving for p, Initial residual = 0.000190517, Final residual = 8.46643e-07, No Iterations 44
time step continuity errors : sum local = 1.63068e-12, global = -4.70433e-13, cumulative = -8.77702e-07
smoothSolver:  Solving for nuTilda, Initial residual = 1.29734e-05, Final residual = 4.79298e-08, No Iterations 1
ExecutionTime = 4133.84 s  ClockTime = 4153 s

forceCoeffs forces write:
    Cm    = 0.340627
    Cd    = 0.681256
    Cl    = -0.00319414
    Cl(f) = 0.33903
    Cl(r) = -0.342224

Time = 34.92

Courant Number mean: 0.0156807 max: 0.604137
smoothSolver:  Solving for Ux, Initial residual = 0.000244966, Final residual = 7.39118e-08, No Iterations 1
smoothSolver:  Solving for Uy, Initial residual = 0.00026532, Final residual = 9.87096e-08, No Iterations 1
smoothSolver:  Solving for Uz, Initial residual = 0.133677, Final residual = 3.06665e-08, No Iterations 2
GAMG:  Solving for p, Initial residual = 0.0944531, Final residual = 0.00419305, No Iterations 10
time step continuity errors : sum local = 8.08551e-09, global = 1.45812e-09, cumulative = -8.76244e-07
GAMG:  Solving for p, Initial residual = 0.0051827, Final residual = 0.000245613, No Iterations 22
time step continuity errors : sum local = 3.95012e-10, global = 1.09103e-10, cumulative = -8.76135e-07
GAMG:  Solving for p, Initial residual = 0.000241585, Final residual = 8.54084e-07, No Iterations 46
time step continuity errors : sum local = 1.43225e-12, global = 4.14695e-13, cumulative = -8.76135e-07
smoothSolver:  Solving for nuTilda, Initial residual = 1.29506e-05, Final residual = 4.77213e-08, No Iterations 1
ExecutionTime = 4137.61 s  ClockTime = 4157 s

forceCoeffs forces write:
    Cm    = 0.331464
    Cd    = 0.662928
    Cl    = -0.000146489
    Cl(f) = 0.33139
    Cl(r) = -0.331537

Time = 34.95

Courant Number mean: 0.0156816 max: 0.604104
smoothSolver:  Solving for Ux, Initial residual = 0.000212004, Final residual = 6.16038e-08, No Iterations 1
smoothSolver:  Solving for Uy, Initial residual = 0.000291769, Final residual = 1.02789e-09, No Iterations 2
smoothSolver:  Solving for Uz, Initial residual = 0.123013, Final residual = 3.0443e-08, No Iterations 2
GAMG:  Solving for p, Initial residual = 0.108625, Final residual = 0.00522746, No Iterations 4
time step continuity errors : sum local = 8.78136e-09, global = -2.51907e-10, cumulative = -8.76387e-07
GAMG:  Solving for p, Initial residual = 0.00531536, Final residual = 0.000248548, No Iterations 15
time step continuity errors : sum local = 4.19078e-10, global = 1.46616e-10, cumulative = -8.7624e-07
GAMG:  Solving for p, Initial residual = 0.000255349, Final residual = 8.39613e-07, No Iterations 49
time step continuity errors : sum local = 1.4106e-12, global = -4.65256e-13, cumulative = -8.76241e-07
smoothSolver:  Solving for nuTilda, Initial residual = 1.29284e-05, Final residual = 4.74223e-08, No Iterations 1
ExecutionTime = 4141.17 s  ClockTime = 4160 s

forceCoeffs forces write:
    Cm    = 0.332034
    Cd    = 0.664069
    Cl    = -0.00287801
    Cl(f) = 0.330595
    Cl(r) = -0.333473

Time = 34.98

Courant Number mean: 0.0156824 max: 0.604067
smoothSolver:  Solving for Ux, Initial residual = 0.000214666, Final residual = 6.28988e-08, No Iterations 1
smoothSolver:  Solving for Uy, Initial residual = 0.000293762, Final residual = 1.03472e-09, No Iterations 2
smoothSolver:  Solving for Uz, Initial residual = 0.123123, Final residual = 3.73439e-08, No Iterations 2
GAMG:  Solving for p, Initial residual = 0.106845, Final residual = 0.00496445, No Iterations 4
time step continuity errors : sum local = 8.33879e-09, global = 9.70352e-10, cumulative = -8.7527e-07
GAMG:  Solving for p, Initial residual = 0.00510462, Final residual = 0.000244511, No Iterations 16
time step continuity errors : sum local = 4.09896e-10, global = 1.55411e-10, cumulative = -8.75115e-07
GAMG:  Solving for p, Initial residual = 0.000250341, Final residual = 8.78577e-07, No Iterations 48
time step continuity errors : sum local = 1.47288e-12, global = 4.98756e-13, cumulative = -8.75114e-07
smoothSolver:  Solving for nuTilda, Initial residual = 1.29049e-05, Final residual = 4.71927e-08, No Iterations 1
ExecutionTime = 4144.64 s  ClockTime = 4164 s

forceCoeffs forces write:
    Cm    = 0.331632
    Cd    = 0.663264
    Cl    = -0.0014268
    Cl(f) = 0.330918
    Cl(r) = -0.332345

Time = 35.01

Courant Number mean: 0.0156832 max: 0.60403
smoothSolver:  Solving for Ux, Initial residual = 0.00021138, Final residual = 6.1864e-08, No Iterations 1
smoothSolver:  Solving for Uy, Initial residual = 0.000291419, Final residual = 1.0266e-09, No Iterations 2
smoothSolver:  Solving for Uz, Initial residual = 0.136223, Final residual = 2.98668e-08, No Iterations 2
GAMG:  Solving for p, Initial residual = 0.108162, Final residual = 0.00515832, No Iterations 10
time step continuity errors : sum local = 8.66003e-09, global = -1.4855e-09, cumulative = -8.766e-07
GAMG:  Solving for p, Initial residual = 0.00456059, Final residual = 0.000187975, No Iterations 22
time step continuity errors : sum local = 3.65474e-10, global = -9.11718e-11, cumulative = -8.76691e-07
