/*---------------------------------------------------------------------------*\
| =========                 |                                                 |
| \\      /  F ield         | OpenFOAM: The Open Source CFD Toolbox           |
|  \\    /   O peration     | Version:  4.1                                   |
|   \\  /    A nd           | Web:      www.OpenFOAM.org                      |
|    \\/     M anipulation  |                                                 |
\*---------------------------------------------------------------------------*/
Build  : 4.1
Exec   : pisoFoam -parallel
Date   : Jul 05 2018
Time   : 13:37:30
Host   : "cp1613"
PID    : 1796
Case   : /scratch/superran/lengthEffect/workingFolder/case_z_100Layer
nProcs : 24
Slaves : 
23
(
"cp1613.1797"
"cp1613.1798"
"cp1613.1799"
"cp1613.1800"
"cp1613.1801"
"cp1613.1802"
"cp1613.1803"
"cp1613.1804"
"cp1613.1805"
"cp1613.1806"
"cp1613.1814"
"cp1613.1818"
"cp1613.1824"
"cp1613.1852"
"cp1613.1874"
"cp1613.1883"
"cp1613.1909"
"cp1613.1946"
"cp1613.1961"
"cp1613.1986"
"cp1613.1994"
"cp1613.2016"
"cp1613.2021"
)

Pstream initialized with:
    floatTransfer      : 0
    nProcsSimpleSum    : 0
    commsType          : nonBlocking
    polling iterations : 0
sigFpe : Enabling floating point exception trapping (FOAM_SIGFPE).
fileModificationChecking : Monitoring run-time modified files using timeStampMaster
allowSystemOperations : Allowing user-supplied system call operations

// * * * * * * * * * * * * * * * * * * * * * * * * * * * * * * * * * * * * * //
Create time

Create mesh for time = 0


PISO: Operating solver in PISO mode

Reading field p

Reading field U

Reading/calculating face flux field phi

Selecting incompressible transport model Newtonian
Selecting turbulence model type LES
Selecting LES turbulence model SpalartAllmarasDDES
Selecting LES delta type cubeRootVol
Selecting patchDistMethod meshWave
SpalartAllmarasDESCoeffs
{
    Ce              1.048;
    sigmaNut        0.66666;
    kappa           0.41;
    Cb1             0.1355;
    Cb2             0.622;
    Cw2             0.3;
    Cw3             2;
    Cv1             7.1;
    Cs              0.3;
    CDES            0.65;
    ck              0.07;
}

No MRF models present

No finite volume options present


Starting time loop

forces forces:
    Not including porosity effects
forceCoeffs forces:
    Not including porosity effects
Time = 0.03

Courant Number mean: 0.000100376 max: 0.00377224
smoothSolver:  Solving for Ux, Initial residual = 1, Final residual = 1.44065e-10, No Iterations 2
smoothSolver:  Solving for Uy, Initial residual = 1, Final residual = 1.33059e-10, No Iterations 2
smoothSolver:  Solving for Uz, Initial residual = 1, Final residual = 1.37604e-10, No Iterations 2
GAMG:  Solving for p, Initial residual = 1, Final residual = 0.0441865, No Iterations 36
time step continuity errors : sum local = 8.87057e-06, global = -2.13372e-06, cumulative = -2.13372e-06
GAMG:  Solving for p, Initial residual = 0.000569583, Final residual = 2.622e-05, No Iterations 28
time step continuity errors : sum local = 4.05343e-07, global = -1.00557e-07, cumulative = -2.23428e-06
GAMG:  Solving for p, Initial residual = 2.58811e-05, Final residual = 8.17043e-07, No Iterations 32
time step continuity errors : sum local = 1.26981e-08, global = -3.2332e-09, cumulative = -2.23751e-06
smoothSolver:  Solving for nuTilda, Initial residual = 1, Final residual = 2.52594e-08, No Iterations 8
bounding nuTilda, min: -9.0025e-17 max: 8.77804e-07 average: 2.78196e-10
ExecutionTime = 8.38 s  ClockTime = 9 s

forceCoeffs forces write:
    Cm    = 189.177
    Cd    = 378.355
    Cl    = 0.00101924
    Cl(f) = 189.178
    Cl(r) = -189.177

Time = 0.06

Courant Number mean: 0.0134335 max: 0.356714
smoothSolver:  Solving for Ux, Initial residual = 0.733297, Final residual = 3.88542e-08, No Iterations 3
smoothSolver:  Solving for Uy, Initial residual = 0.333022, Final residual = 8.607e-09, No Iterations 3
smoothSolver:  Solving for Uz, Initial residual = 0.333047, Final residual = 3.98599e-09, No Iterations 3
GAMG:  Solving for p, Initial residual = 0.0203408, Final residual = 0.000859912, No Iterations 36
time step continuity errors : sum local = 8.84071e-06, global = 2.12913e-06, cumulative = -1.08377e-07
GAMG:  Solving for p, Initial residual = 0.00183374, Final residual = 8.05591e-05, No Iterations 26
time step continuity errors : sum local = 4.10203e-07, global = 1.03427e-07, cumulative = -4.94966e-09
GAMG:  Solving for p, Initial residual = 8.28776e-05, Final residual = 8.35983e-07, No Iterations 42
time step continuity errors : sum local = 4.29845e-09, global = 1.11093e-09, cumulative = -3.83873e-09
smoothSolver:  Solving for nuTilda, Initial residual = 0.000625288, Final residual = 1.87143e-08, No Iterations 3
bounding nuTilda, min: -1.53079e-27 max: 8.11084e-07 average: 5.35968e-10
ExecutionTime = 14.74 s  ClockTime = 15 s

forceCoeffs forces write:
    Cm    = -93.9238
    Cd    = -187.848
    Cl    = -0.00115694
    Cl(f) = -93.9244
    Cl(r) = 93.9232

Time = 0.09

Courant Number mean: 0.0134519 max: 0.356963
smoothSolver:  Solving for Ux, Initial residual = 0.472889, Final residual = 2.53868e-08, No Iterations 3
smoothSolver:  Solving for Uy, Initial residual = 0.207817, Final residual = 5.24464e-09, No Iterations 3
smoothSolver:  Solving for Uz, Initial residual = 0.434356, Final residual = 5.27745e-09, No Iterations 3
GAMG:  Solving for p, Initial residual = 0.014285, Final residual = 0.000576368, No Iterations 36
time step continuity errors : sum local = 2.93464e-06, global = -7.06792e-07, cumulative = -7.10631e-07
GAMG:  Solving for p, Initial residual = 0.0794238, Final residual = 0.00348938, No Iterations 26
time step continuity errors : sum local = 1.35869e-07, global = -3.4258e-08, cumulative = -7.44889e-07
GAMG:  Solving for p, Initial residual = 0.00261627, Final residual = 8.64718e-07, No Iterations 74
time step continuity errors : sum local = 4.66021e-11, global = -1.20596e-11, cumulative = -7.44901e-07
smoothSolver:  Solving for nuTilda, Initial residual = 0.00030146, Final residual = 8.68569e-09, No Iterations 3
bounding nuTilda, min: -2.84399e-43 max: 7.49507e-07 average: 7.75282e-10
ExecutionTime = 22.67 s  ClockTime = 23 s

forceCoeffs forces write:
    Cm    = 0.400845
    Cd    = 0.801664
    Cl    = 0.00134656
    Cl(f) = 0.401519
    Cl(r) = -0.400172

Time = 0.12

Courant Number mean: 0.0134674 max: 0.356754
smoothSolver:  Solving for Ux, Initial residual = 0.005268, Final residual = 6.41119e-09, No Iterations 2
smoothSolver:  Solving for Uy, Initial residual = 0.00427909, Final residual = 3.04988e-09, No Iterations 2
smoothSolver:  Solving for Uz, Initial residual = 0.348561, Final residual = 2.32448e-09, No Iterations 3
GAMG:  Solving for p, Initial residual = 0.101722, Final residual = 0.00439873, No Iterations 8
time step continuity errors : sum local = 2.21753e-07, global = 3.81153e-08, cumulative = -7.06786e-07
GAMG:  Solving for p, Initial residual = 0.00544729, Final residual = 0.000254757, No Iterations 18
time step continuity errors : sum local = 1.04598e-08, global = 2.2537e-09, cumulative = -7.04532e-07
GAMG:  Solving for p, Initial residual = 0.000261394, Final residual = 9.35219e-07, No Iterations 48
time step continuity errors : sum local = 3.7425e-11, global = 9.00425e-12, cumulative = -7.04523e-07
smoothSolver:  Solving for nuTilda, Initial residual = 0.000199103, Final residual = 6.89914e-08, No Iterations 2
ExecutionTime = 27.59 s  ClockTime = 28 s

forceCoeffs forces write:
    Cm    = 0.317071
    Cd    = 0.634148
    Cl    = -0.000985376
    Cl(f) = 0.316578
    Cl(r) = -0.317563

Time = 0.15

Courant Number mean: 0.0134793 max: 0.35622
smoothSolver:  Solving for Ux, Initial residual = 0.00382416, Final residual = 4.74721e-09, No Iterations 2
smoothSolver:  Solving for Uy, Initial residual = 0.00308789, Final residual = 2.57693e-09, No Iterations 2
smoothSolver:  Solving for Uz, Initial residual = 0.328187, Final residual = 8.89605e-08, No Iterations 2
GAMG:  Solving for p, Initial residual = 0.0832158, Final residual = 0.00357139, No Iterations 8
time step continuity errors : sum local = 1.3313e-07, global = 2.34025e-08, cumulative = -6.8112e-07
GAMG:  Solving for p, Initial residual = 0.00421137, Final residual = 0.000175319, No Iterations 20
time step continuity errors : sum local = 5.5925e-09, global = 1.25176e-09, cumulative = -6.79869e-07
GAMG:  Solving for p, Initial residual = 0.000179154, Final residual = 9.63326e-07, No Iterations 46
time step continuity errors : sum local = 3.00606e-11, global = 7.42961e-12, cumulative = -6.79861e-07
smoothSolver:  Solving for nuTilda, Initial residual = 0.000151889, Final residual = 5.27253e-08, No Iterations 2
ExecutionTime = 32.47 s  ClockTime = 33 s

forceCoeffs forces write:
    Cm    = 0.26285
    Cd    = 0.525699
    Cl    = 0.00153545
    Cl(f) = 0.263618
    Cl(r) = -0.262083

Time = 0.18

Courant Number mean: 0.0134884 max: 0.355289
smoothSolver:  Solving for Ux, Initial residual = 0.00288748, Final residual = 3.62326e-09, No Iterations 2
smoothSolver:  Solving for Uy, Initial residual = 0.00234371, Final residual = 2.24717e-09, No Iterations 2
smoothSolver:  Solving for Uz, Initial residual = 0.303243, Final residual = 8.67766e-08, No Iterations 2
GAMG:  Solving for p, Initial residual = 0.0673828, Final residual = 0.00265815, No Iterations 8
time step continuity errors : sum local = 7.84001e-08, global = 1.454e-08, cumulative = -6.65321e-07
GAMG:  Solving for p, Initial residual = 0.00299707, Final residual = 0.000115967, No Iterations 20
time step continuity errors : sum local = 3.07365e-09, global = 6.97514e-10, cumulative = -6.64624e-07
GAMG:  Solving for p, Initial residual = 0.000117483, Final residual = 8.55181e-07, No Iterations 42
time step continuity errors : sum local = 2.24307e-11, global = 5.33089e-12, cumulative = -6.64618e-07
smoothSolver:  Solving for nuTilda, Initial residual = 0.000126206, Final residual = 4.65585e-08, No Iterations 2
ExecutionTime = 37.34 s  ClockTime = 38 s

forceCoeffs forces write:
    Cm    = 0.234939
    Cd    = 0.469878
    Cl    = -0.00227247
    Cl(f) = 0.233803
    Cl(r) = -0.236075

Time = 0.21

Courant Number mean: 0.0134958 max: 0.355153
smoothSolver:  Solving for Ux, Initial residual = 0.00232365, Final residual = 3.01276e-09, No Iterations 2
smoothSolver:  Solving for Uy, Initial residual = 0.00190182, Final residual = 2.02465e-09, No Iterations 2
smoothSolver:  Solving for Uz, Initial residual = 0.273422, Final residual = 7.58042e-08, No Iterations 2
GAMG:  Solving for p, Initial residual = 0.0539725, Final residual = 0.00213488, No Iterations 8
time step continuity errors : sum local = 5.35713e-08, global = 9.90645e-09, cumulative = -6.54712e-07
GAMG:  Solving for p, Initial residual = 0.00235693, Final residual = 0.000104507, No Iterations 20
time step continuity errors : sum local = 2.40784e-09, global = 5.5001e-10, cumulative = -6.54162e-07
GAMG:  Solving for p, Initial residual = 0.000105718, Final residual = 9.18475e-07, No Iterations 42
time step continuity errors : sum local = 2.0947e-11, global = 5.19199e-12, cumulative = -6.54157e-07
smoothSolver:  Solving for nuTilda, Initial residual = 0.000110795, Final residual = 4.31479e-08, No Iterations 2
ExecutionTime = 42.1 s  ClockTime = 43 s

forceCoeffs forces write:
    Cm    = 0.211338
    Cd    = 0.422675
    Cl    = 0.00113962
    Cl(f) = 0.211908
    Cl(r) = -0.210768

Time = 0.24

Courant Number mean: 0.013502 max: 0.355421
smoothSolver:  Solving for Ux, Initial residual = 0.00194911, Final residual = 2.61e-09, No Iterations 2
smoothSolver:  Solving for Uy, Initial residual = 0.00161755, Final residual = 1.87129e-09, No Iterations 2
smoothSolver:  Solving for Uz, Initial residual = 0.271065, Final residual = 8.59577e-08, No Iterations 2
GAMG:  Solving for p, Initial residual = 0.0443568, Final residual = 0.00153097, No Iterations 8
time step continuity errors : sum local = 3.36383e-08, global = 6.58498e-09, cumulative = -6.47572e-07
GAMG:  Solving for p, Initial residual = 0.00165411, Final residual = 6.36832e-05, No Iterations 20
time step continuity errors : sum local = 1.31877e-09, global = 3.07972e-10, cumulative = -6.47264e-07
GAMG:  Solving for p, Initial residual = 6.42582e-05, Final residual = 8.93153e-07, No Iterations 36
time step continuity errors : sum local = 1.84166e-11, global = 4.34311e-12, cumulative = -6.47259e-07
smoothSolver:  Solving for nuTilda, Initial residual = 0.000101082, Final residual = 3.88183e-08, No Iterations 2
ExecutionTime = 46.51 s  ClockTime = 47 s

forceCoeffs forces write:
    Cm    = 0.198955
    Cd    = 0.39791
    Cl    = -0.00125248
    Cl(f) = 0.198329
    Cl(r) = -0.199581

Time = 0.27

Courant Number mean: 0.0135076 max: 0.35565
smoothSolver:  Solving for Ux, Initial residual = 0.00171713, Final residual = 2.39231e-09, No Iterations 2
smoothSolver:  Solving for Uy, Initial residual = 0.00143235, Final residual = 1.7599e-09, No Iterations 2
smoothSolver:  Solving for Uz, Initial residual = 0.276751, Final residual = 8.54235e-08, No Iterations 2
GAMG:  Solving for p, Initial residual = 0.0375515, Final residual = 0.00173851, No Iterations 7
time step continuity errors : sum local = 3.47343e-08, global = -7.63935e-09, cumulative = -6.54899e-07
GAMG:  Solving for p, Initial residual = 0.00185804, Final residual = 8.75237e-05, No Iterations 17
time step continuity errors : sum local = 1.66113e-09, global = 3.74577e-10, cumulative = -6.54524e-07
GAMG:  Solving for p, Initial residual = 8.8579e-05, Final residual = 8.8995e-07, No Iterations 40
time step continuity errors : sum local = 1.68358e-11, global = 4.06768e-12, cumulative = -6.5452e-07
smoothSolver:  Solving for nuTilda, Initial residual = 9.47837e-05, Final residual = 3.70447e-08, No Iterations 2
ExecutionTime = 51.32 s  ClockTime = 52 s

forceCoeffs forces write:
    Cm    = 0.187485
    Cd    = 0.374969
    Cl    = -0.00114566
    Cl(f) = 0.186912
    Cl(r) = -0.188057

Time = 0.3

Courant Number mean: 0.0135128 max: 0.355848
smoothSolver:  Solving for Ux, Initial residual = 0.00154331, Final residual = 2.21486e-09, No Iterations 2
smoothSolver:  Solving for Uy, Initial residual = 0.00130637, Final residual = 1.6748e-09, No Iterations 2
smoothSolver:  Solving for Uz, Initial residual = 0.290722, Final residual = 8.69709e-08, No Iterations 2
GAMG:  Solving for p, Initial residual = 0.0329552, Final residual = 0.00113988, No Iterations 8
time step continuity errors : sum local = 2.09826e-08, global = 4.0456e-09, cumulative = -6.50474e-07
GAMG:  Solving for p, Initial residual = 0.0012234, Final residual = 5.521e-05, No Iterations 22
time step continuity errors : sum local = 9.68622e-10, global = 2.50319e-10, cumulative = -6.50224e-07
GAMG:  Solving for p, Initial residual = 5.55923e-05, Final residual = 9.45985e-07, No Iterations 38
time step continuity errors : sum local = 1.64927e-11, global = 4.35364e-12, cumulative = -6.5022e-07
smoothSolver:  Solving for nuTilda, Initial residual = 9.0692e-05, Final residual = 2.36961e-08, No Iterations 2
ExecutionTime = 55.95 s  ClockTime = 57 s

forceCoeffs forces write:
    Cm    = 0.175178
    Cd    = 0.350356
    Cl    = 0.0037429
    Cl(f) = 0.177049
    Cl(r) = -0.173307

Time = 0.33

Courant Number mean: 0.0135175 max: 0.356009
smoothSolver:  Solving for Ux, Initial residual = 0.00140477, Final residual = 2.04387e-09, No Iterations 2
smoothSolver:  Solving for Uy, Initial residual = 0.00120484, Final residual = 1.60873e-09, No Iterations 2
smoothSolver:  Solving for Uz, Initial residual = 0.307855, Final residual = 6.13047e-08, No Iterations 2
GAMG:  Solving for p, Initial residual = 0.0302003, Final residual = 0.00131834, No Iterations 6
time step continuity errors : sum local = 2.24304e-08, global = 4.20198e-09, cumulative = -6.46018e-07
GAMG:  Solving for p, Initial residual = 0.00138446, Final residual = 6.46918e-05, No Iterations 17
time step continuity errors : sum local = 1.06657e-09, global = -3.18564e-10, cumulative = -6.46336e-07
GAMG:  Solving for p, Initial residual = 6.5197e-05, Final residual = 8.65017e-07, No Iterations 38
time step continuity errors : sum local = 1.42624e-11, global = -4.0168e-12, cumulative = -6.4634e-07
smoothSolver:  Solving for nuTilda, Initial residual = 8.8043e-05, Final residual = 2.47704e-08, No Iterations 2
ExecutionTime = 60.3 s  ClockTime = 61 s

forceCoeffs forces write:
    Cm    = 0.170551
    Cd    = 0.341101
    Cl    = 0.00163682
    Cl(f) = 0.171369
    Cl(r) = -0.169732

Time = 0.36

Courant Number mean: 0.0135222 max: 0.356136
smoothSolver:  Solving for Ux, Initial residual = 0.00132229, Final residual = 1.97955e-09, No Iterations 2
smoothSolver:  Solving for Uy, Initial residual = 0.00112319, Final residual = 1.54555e-09, No Iterations 2
smoothSolver:  Solving for Uz, Initial residual = 0.29257, Final residual = 6.16409e-08, No Iterations 2
GAMG:  Solving for p, Initial residual = 0.0283264, Final residual = 0.00120184, No Iterations 6
time step continuity errors : sum local = 1.93969e-08, global = 3.99644e-09, cumulative = -6.42344e-07
GAMG:  Solving for p, Initial residual = 0.00125932, Final residual = 6.19749e-05, No Iterations 20
time step continuity errors : sum local = 9.71235e-10, global = 3.01189e-10, cumulative = -6.42043e-07
GAMG:  Solving for p, Initial residual = 6.20862e-05, Final residual = 8.45305e-07, No Iterations 38
time step continuity errors : sum local = 1.32203e-11, global = 3.71276e-12, cumulative = -6.42039e-07
smoothSolver:  Solving for nuTilda, Initial residual = 8.58673e-05, Final residual = 3.45424e-08, No Iterations 2
ExecutionTime = 64.68 s  ClockTime = 65 s

forceCoeffs forces write:
    Cm    = 0.164142
    Cd    = 0.328284
    Cl    = -0.00169216
    Cl(f) = 0.163296
    Cl(r) = -0.164988

Time = 0.39

Courant Number mean: 0.0135267 max: 0.356227
smoothSolver:  Solving for Ux, Initial residual = 0.00124727, Final residual = 1.90605e-09, No Iterations 2
smoothSolver:  Solving for Uy, Initial residual = 0.0010722, Final residual = 1.49888e-09, No Iterations 2
smoothSolver:  Solving for Uz, Initial residual = 0.285589, Final residual = 7.54839e-08, No Iterations 2
GAMG:  Solving for p, Initial residual = 0.0274598, Final residual = 0.00116037, No Iterations 6
time step continuity errors : sum local = 1.77769e-08, global = 3.70547e-09, cumulative = -6.38334e-07
GAMG:  Solving for p, Initial residual = 0.00122064, Final residual = 5.75741e-05, No Iterations 22
time step continuity errors : sum local = 8.54166e-10, global = 2.37225e-10, cumulative = -6.38096e-07
GAMG:  Solving for p, Initial residual = 5.8005e-05, Final residual = 8.65754e-07, No Iterations 40
time step continuity errors : sum local = 1.27692e-11, global = 3.45976e-12, cumulative = -6.38093e-07
smoothSolver:  Solving for nuTilda, Initial residual = 8.35274e-05, Final residual = 3.02445e-08, No Iterations 2
ExecutionTime = 69.47 s  ClockTime = 70 s

forceCoeffs forces write:
    Cm    = 0.155973
    Cd    = 0.311945
    Cl    = 0.00134791
    Cl(f) = 0.156647
    Cl(r) = -0.155299

Time = 0.42

Courant Number mean: 0.013531 max: 0.35628
smoothSolver:  Solving for Ux, Initial residual = 0.00117434, Final residual = 1.80931e-09, No Iterations 2
smoothSolver:  Solving for Uy, Initial residual = 0.00102216, Final residual = 1.45567e-09, No Iterations 2
smoothSolver:  Solving for Uz, Initial residual = 0.263471, Final residual = 7.43477e-08, No Iterations 2
GAMG:  Solving for p, Initial residual = 0.0273372, Final residual = 0.00120441, No Iterations 5
time step continuity errors : sum local = 1.74348e-08, global = -3.06043e-09, cumulative = -6.41153e-07
GAMG:  Solving for p, Initial residual = 0.00125325, Final residual = 5.44993e-05, No Iterations 15
time step continuity errors : sum local = 7.69662e-10, global = 1.92406e-10, cumulative = -6.40961e-07
GAMG:  Solving for p, Initial residual = 5.49931e-05, Final residual = 9.65171e-07, No Iterations 32
time step continuity errors : sum local = 1.36223e-11, global = 3.87826e-12, cumulative = -6.40957e-07
smoothSolver:  Solving for nuTilda, Initial residual = 8.09544e-05, Final residual = 2.45606e-08, No Iterations 2
ExecutionTime = 73.32 s  ClockTime = 74 s

forceCoeffs forces write:
    Cm    = 0.151352
    Cd    = 0.302703
    Cl    = 0.00113828
    Cl(f) = 0.151921
    Cl(r) = -0.150783

Time = 0.45

Courant Number mean: 0.0135353 max: 0.356299
smoothSolver:  Solving for Ux, Initial residual = 0.00112708, Final residual = 1.75878e-09, No Iterations 2
smoothSolver:  Solving for Uy, Initial residual = 0.000979053, Final residual = 1.41419e-09, No Iterations 2
smoothSolver:  Solving for Uz, Initial residual = 0.256365, Final residual = 6.047e-08, No Iterations 2
GAMG:  Solving for p, Initial residual = 0.0270845, Final residual = 0.0012681, No Iterations 5
time step continuity errors : sum local = 1.76104e-08, global = -3.37147e-09, cumulative = -6.44328e-07
GAMG:  Solving for p, Initial residual = 0.00131652, Final residual = 5.98175e-05, No Iterations 16
time step continuity errors : sum local = 8.12076e-10, global = -2.43214e-10, cumulative = -6.44572e-07
GAMG:  Solving for p, Initial residual = 6.01113e-05, Final residual = 9.01557e-07, No Iterations 34
time step continuity errors : sum local = 1.22415e-11, global = -3.02315e-12, cumulative = -6.44575e-07
smoothSolver:  Solving for nuTilda, Initial residual = 7.82543e-05, Final residual = 2.25497e-08, No Iterations 2
ExecutionTime = 77.3 s  ClockTime = 78 s

forceCoeffs forces write:
    Cm    = 0.147643
    Cd    = 0.295286
    Cl    = 0.00172837
    Cl(f) = 0.148507
    Cl(r) = -0.146779

Time = 0.48

Courant Number mean: 0.0135395 max: 0.356287
smoothSolver:  Solving for Ux, Initial residual = 0.00108977, Final residual = 1.72236e-09, No Iterations 2
smoothSolver:  Solving for Uy, Initial residual = 0.000935553, Final residual = 1.37618e-09, No Iterations 2
smoothSolver:  Solving for Uz, Initial residual = 0.256505, Final residual = 6.34831e-08, No Iterations 2
GAMG:  Solving for p, Initial residual = 0.0265917, Final residual = 0.00118102, No Iterations 5
time step continuity errors : sum local = 1.58028e-08, global = -3.77939e-09, cumulative = -6.48354e-07
GAMG:  Solving for p, Initial residual = 0.00121969, Final residual = 5.64737e-05, No Iterations 22
time step continuity errors : sum local = 7.42478e-10, global = -2.55848e-10, cumulative = -6.4861e-07
GAMG:  Solving for p, Initial residual = 5.63729e-05, Final residual = 9.34647e-07, No Iterations 38
time step continuity errors : sum local = 1.23055e-11, global = -4.14722e-12, cumulative = -6.48614e-07
smoothSolver:  Solving for nuTilda, Initial residual = 7.56155e-05, Final residual = 2.25407e-08, No Iterations 2
ExecutionTime = 81.94 s  ClockTime = 83 s

forceCoeffs forces write:
    Cm    = 0.144318
    Cd    = 0.288635
    Cl    = -0.00116486
    Cl(f) = 0.143735
    Cl(r) = -0.1449

Time = 0.51

Courant Number mean: 0.0135437 max: 0.356239
smoothSolver:  Solving for Ux, Initial residual = 0.0010686, Final residual = 1.69883e-09, No Iterations 2
smoothSolver:  Solving for Uy, Initial residual = 0.000916625, Final residual = 1.34715e-09, No Iterations 2
smoothSolver:  Solving for Uz, Initial residual = 0.260259, Final residual = 6.55344e-08, No Iterations 2
GAMG:  Solving for p, Initial residual = 0.0263391, Final residual = 0.00127132, No Iterations 5
time step continuity errors : sum local = 1.65067e-08, global = -3.28062e-09, cumulative = -6.51895e-07
GAMG:  Solving for p, Initial residual = 0.00131662, Final residual = 5.4656e-05, No Iterations 17
time step continuity errors : sum local = 6.94667e-10, global = 1.45034e-10, cumulative = -6.5175e-07
GAMG:  Solving for p, Initial residual = 5.52947e-05, Final residual = 8.31086e-07, No Iterations 36
time step continuity errors : sum local = 1.05354e-11, global = 2.65773e-12, cumulative = -6.51747e-07
smoothSolver:  Solving for nuTilda, Initial residual = 7.31369e-05, Final residual = 2.2285e-08, No Iterations 2
ExecutionTime = 86.04 s  ClockTime = 87 s

forceCoeffs forces write:
    Cm    = 0.139463
    Cd    = 0.278926
    Cl    = -0.00099794
    Cl(f) = 0.138964
    Cl(r) = -0.139962

Time = 0.54

Courant Number mean: 0.0135477 max: 0.356152
smoothSolver:  Solving for Ux, Initial residual = 0.00104419, Final residual = 1.65471e-09, No Iterations 2
smoothSolver:  Solving for Uy, Initial residual = 0.000888488, Final residual = 1.31587e-09, No Iterations 2
smoothSolver:  Solving for Uz, Initial residual = 0.249712, Final residual = 5.67372e-08, No Iterations 2
GAMG:  Solving for p, Initial residual = 0.0260797, Final residual = 0.00128219, No Iterations 5
time step continuity errors : sum local = 1.60318e-08, global = -3.70834e-09, cumulative = -6.55455e-07
GAMG:  Solving for p, Initial residual = 0.00132543, Final residual = 5.88481e-05, No Iterations 17
time step continuity errors : sum local = 7.21166e-10, global = 1.84066e-10, cumulative = -6.55271e-07
GAMG:  Solving for p, Initial residual = 5.90976e-05, Final residual = 9.35633e-07, No Iterations 32
time step continuity errors : sum local = 1.14517e-11, global = 3.44659e-12, cumulative = -6.55268e-07
smoothSolver:  Solving for nuTilda, Initial residual = 7.08675e-05, Final residual = 2.24024e-08, No Iterations 2
ExecutionTime = 90.52 s  ClockTime = 91 s

forceCoeffs forces write:
    Cm    = 0.135758
    Cd    = 0.271516
    Cl    = -0.000625739
    Cl(f) = 0.135445
    Cl(r) = -0.136071

Time = 0.57

Courant Number mean: 0.0135517 max: 0.356036
smoothSolver:  Solving for Ux, Initial residual = 0.00102518, Final residual = 1.62387e-09, No Iterations 2
smoothSolver:  Solving for Uy, Initial residual = 0.000859293, Final residual = 1.28585e-09, No Iterations 2
smoothSolver:  Solving for Uz, Initial residual = 0.246584, Final residual = 6.31902e-08, No Iterations 2
GAMG:  Solving for p, Initial residual = 0.0258808, Final residual = 0.00108234, No Iterations 5
time step continuity errors : sum local = 1.30827e-08, global = -3.00632e-09, cumulative = -6.58274e-07
GAMG:  Solving for p, Initial residual = 0.00111716, Final residual = 5.45327e-05, No Iterations 19
time step continuity errors : sum local = 6.49367e-10, global = 2.05196e-10, cumulative = -6.58069e-07
GAMG:  Solving for p, Initial residual = 5.47477e-05, Final residual = 9.61697e-07, No Iterations 34
time step continuity errors : sum local = 1.14504e-11, global = 2.87117e-12, cumulative = -6.58066e-07
smoothSolver:  Solving for nuTilda, Initial residual = 6.88175e-05, Final residual = 2.24604e-08, No Iterations 2
ExecutionTime = 94.61 s  ClockTime = 96 s

forceCoeffs forces write:
    Cm    = 0.132316
    Cd    = 0.264633
    Cl    = -0.00102618
    Cl(f) = 0.131803
    Cl(r) = -0.13283

Time = 0.6

Courant Number mean: 0.0135557 max: 0.356083
smoothSolver:  Solving for Ux, Initial residual = 0.00100655, Final residual = 1.597e-09, No Iterations 2
smoothSolver:  Solving for Uy, Initial residual = 0.000850617, Final residual = 1.2659e-09, No Iterations 2
smoothSolver:  Solving for Uz, Initial residual = 0.254813, Final residual = 5.80723e-08, No Iterations 2
GAMG:  Solving for p, Initial residual = 0.0259571, Final residual = 0.000962186, No Iterations 5
time step continuity errors : sum local = 1.13221e-08, global = -2.51707e-09, cumulative = -6.60583e-07
GAMG:  Solving for p, Initial residual = 0.000991675, Final residual = 4.29808e-05, No Iterations 20
time step continuity errors : sum local = 4.99469e-10, global = -1.154e-10, cumulative = -6.60699e-07
GAMG:  Solving for p, Initial residual = 4.27632e-05, Final residual = 8.60435e-07, No Iterations 34
time step continuity errors : sum local = 1.00436e-11, global = -2.39589e-12, cumulative = -6.60701e-07
smoothSolver:  Solving for nuTilda, Initial residual = 6.69889e-05, Final residual = 2.24145e-08, No Iterations 2
ExecutionTime = 99.06 s  ClockTime = 100 s

forceCoeffs forces write:
    Cm    = 0.131641
    Cd    = 0.263283
    Cl    = -0.00131255
    Cl(f) = 0.130985
    Cl(r) = -0.132298

Time = 0.63

Courant Number mean: 0.0135596 max: 0.356438
smoothSolver:  Solving for Ux, Initial residual = 0.00099747, Final residual = 1.60196e-09, No Iterations 2
smoothSolver:  Solving for Uy, Initial residual = 0.000830762, Final residual = 1.24045e-09, No Iterations 2
smoothSolver:  Solving for Uz, Initial residual = 0.258574, Final residual = 7.0377e-08, No Iterations 2
GAMG:  Solving for p, Initial residual = 0.0254971, Final residual = 0.000944946, No Iterations 6
time step continuity errors : sum local = 1.0912e-08, global = 2.34885e-09, cumulative = -6.58352e-07
GAMG:  Solving for p, Initial residual = 0.00098294, Final residual = 4.60935e-05, No Iterations 24
time step continuity errors : sum local = 5.22244e-10, global = 1.3501e-10, cumulative = -6.58217e-07
GAMG:  Solving for p, Initial residual = 4.60216e-05, Final residual = 9.79758e-07, No Iterations 36
time step continuity errors : sum local = 1.10274e-11, global = 2.90567e-12, cumulative = -6.58214e-07
smoothSolver:  Solving for nuTilda, Initial residual = 6.53633e-05, Final residual = 2.25801e-08, No Iterations 2
ExecutionTime = 103.52 s  ClockTime = 105 s

forceCoeffs forces write:
    Cm    = 0.125957
    Cd    = 0.251914
    Cl    = 0.00220852
    Cl(f) = 0.127061
    Cl(r) = -0.124853

Time = 0.66

Courant Number mean: 0.0135635 max: 0.356782
smoothSolver:  Solving for Ux, Initial residual = 0.000972665, Final residual = 1.54694e-09, No Iterations 2
smoothSolver:  Solving for Uy, Initial residual = 0.000821177, Final residual = 1.22491e-09, No Iterations 2
smoothSolver:  Solving for Uz, Initial residual = 0.252416, Final residual = 7.34484e-08, No Iterations 2
GAMG:  Solving for p, Initial residual = 0.0254506, Final residual = 0.000842226, No Iterations 5
time step continuity errors : sum local = 9.37903e-09, global = -2.11138e-09, cumulative = -6.60326e-07
GAMG:  Solving for p, Initial residual = 0.000869707, Final residual = 3.73236e-05, No Iterations 20
time step continuity errors : sum local = 4.11406e-10, global = -9.35882e-11, cumulative = -6.60419e-07
GAMG:  Solving for p, Initial residual = 3.70608e-05, Final residual = 8.09691e-07, No Iterations 32
time step continuity errors : sum local = 8.96512e-12, global = -2.06297e-12, cumulative = -6.60421e-07
smoothSolver:  Solving for nuTilda, Initial residual = 6.39246e-05, Final residual = 2.27677e-08, No Iterations 2
ExecutionTime = 107.56 s  ClockTime = 109 s

forceCoeffs forces write:
    Cm    = 0.125491
    Cd    = 0.250981
    Cl    = 0.00298988
    Cl(f) = 0.126986
    Cl(r) = -0.123996

Time = 0.69

Courant Number mean: 0.0135674 max: 0.357118
smoothSolver:  Solving for Ux, Initial residual = 0.000964877, Final residual = 1.5504e-09, No Iterations 2
smoothSolver:  Solving for Uy, Initial residual = 0.000807692, Final residual = 1.20524e-09, No Iterations 2
smoothSolver:  Solving for Uz, Initial residual = 0.255286, Final residual = 5.92533e-08, No Iterations 2
GAMG:  Solving for p, Initial residual = 0.0251921, Final residual = 0.00125005, No Iterations 5
time step continuity errors : sum local = 1.37085e-08, global = -3.71063e-09, cumulative = -6.64132e-07
GAMG:  Solving for p, Initial residual = 0.0012859, Final residual = 5.76328e-05, No Iterations 21
time step continuity errors : sum local = 6.22908e-10, global = 2.04875e-10, cumulative = -6.63927e-07
GAMG:  Solving for p, Initial residual = 5.76922e-05, Final residual = 8.65556e-07, No Iterations 39
time step continuity errors : sum local = 9.35189e-12, global = -3.11685e-12, cumulative = -6.6393e-07
smoothSolver:  Solving for nuTilda, Initial residual = 6.26437e-05, Final residual = 2.30046e-08, No Iterations 2
ExecutionTime = 112.47 s  ClockTime = 114 s

forceCoeffs forces write:
    Cm    = 0.123121
    Cd    = 0.246242
    Cl    = 0.000340087
    Cl(f) = 0.123291
    Cl(r) = -0.122951

Time = 0.72

Courant Number mean: 0.0135712 max: 0.357446
smoothSolver:  Solving for Ux, Initial residual = 0.00095309, Final residual = 1.53499e-09, No Iterations 2
smoothSolver:  Solving for Uy, Initial residual = 0.000789701, Final residual = 1.18226e-09, No Iterations 2
smoothSolver:  Solving for Uz, Initial residual = 0.271433, Final residual = 6.07592e-08, No Iterations 2
GAMG:  Solving for p, Initial residual = 0.0251664, Final residual = 0.00103136, No Iterations 5
time step continuity errors : sum local = 1.10397e-08, global = -2.70742e-09, cumulative = -6.66638e-07
GAMG:  Solving for p, Initial residual = 0.00106081, Final residual = 5.01269e-05, No Iterations 18
time step continuity errors : sum local = 5.3089e-10, global = -1.32177e-10, cumulative = -6.6677e-07
GAMG:  Solving for p, Initial residual = 4.98483e-05, Final residual = 9.07162e-07, No Iterations 34
time step continuity errors : sum local = 9.62719e-12, global = -2.60168e-12, cumulative = -6.66772e-07
smoothSolver:  Solving for nuTilda, Initial residual = 6.14966e-05, Final residual = 2.32453e-08, No Iterations 2
ExecutionTime = 116.52 s  ClockTime = 118 s

forceCoeffs forces write:
    Cm    = 0.121708
    Cd    = 0.243415
    Cl    = -0.000118272
    Cl(f) = 0.121648
    Cl(r) = -0.121767

Time = 0.75

Courant Number mean: 0.0135751 max: 0.357765
smoothSolver:  Solving for Ux, Initial residual = 0.000940999, Final residual = 1.52869e-09, No Iterations 2
smoothSolver:  Solving for Uy, Initial residual = 0.000779872, Final residual = 1.16586e-09, No Iterations 2
smoothSolver:  Solving for Uz, Initial residual = 0.247458, Final residual = 4.18449e-08, No Iterations 2
GAMG:  Solving for p, Initial residual = 0.0254867, Final residual = 0.00120656, No Iterations 6
time step continuity errors : sum local = 1.26942e-08, global = 2.42056e-09, cumulative = -6.64352e-07
GAMG:  Solving for p, Initial residual = 0.00125787, Final residual = 5.49433e-05, No Iterations 22
time step continuity errors : sum local = 5.63209e-10, global = 1.27818e-10, cumulative = -6.64224e-07
GAMG:  Solving for p, Initial residual = 5.511e-05, Final residual = 9.77965e-07, No Iterations 36
time step continuity errors : sum local = 9.90151e-12, global = 2.48028e-12, cumulative = -6.64221e-07
smoothSolver:  Solving for nuTilda, Initial residual = 6.04507e-05, Final residual = 2.35249e-08, No Iterations 2
ExecutionTime = 120.95 s  ClockTime = 122 s

forceCoeffs forces write:
    Cm    = 0.114205
    Cd    = 0.22841
    Cl    = 0.00116885
    Cl(f) = 0.114789
    Cl(r) = -0.113621

Time = 0.78

Courant Number mean: 0.0135787 max: 0.358068
smoothSolver:  Solving for Ux, Initial residual = 0.000910179, Final residual = 1.44527e-09, No Iterations 2
smoothSolver:  Solving for Uy, Initial residual = 0.000764437, Final residual = 1.15129e-09, No Iterations 2
smoothSolver:  Solving for Uz, Initial residual = 0.258734, Final residual = 6.9473e-08, No Iterations 2
GAMG:  Solving for p, Initial residual = 0.0261145, Final residual = 0.0010332, No Iterations 7
time step continuity errors : sum local = 1.03689e-08, global = -1.7806e-09, cumulative = -6.66002e-07
GAMG:  Solving for p, Initial residual = 0.00104883, Final residual = 4.1783e-05, No Iterations 24
time step continuity errors : sum local = 4.24411e-10, global = -1.00887e-10, cumulative = -6.66103e-07
GAMG:  Solving for p, Initial residual = 4.10581e-05, Final residual = 9.8004e-07, No Iterations 34
time step continuity errors : sum local = 1.00374e-11, global = -2.55764e-12, cumulative = -6.66105e-07
smoothSolver:  Solving for nuTilda, Initial residual = 5.9502e-05, Final residual = 2.38196e-08, No Iterations 2
ExecutionTime = 125.36 s  ClockTime = 127 s

forceCoeffs forces write:
    Cm    = 0.118637
    Cd    = 0.237273
    Cl    = -0.000808803
    Cl(f) = 0.118232
    Cl(r) = -0.119041

Time = 0.81

Courant Number mean: 0.0135825 max: 0.358368
smoothSolver:  Solving for Ux, Initial residual = 0.000921057, Final residual = 1.50624e-09, No Iterations 2
smoothSolver:  Solving for Uy, Initial residual = 0.000758781, Final residual = 1.13305e-09, No Iterations 2
smoothSolver:  Solving for Uz, Initial residual = 0.273247, Final residual = 5.44903e-08, No Iterations 2
GAMG:  Solving for p, Initial residual = 0.0250816, Final residual = 0.000943352, No Iterations 6
time step continuity errors : sum local = 9.58611e-09, global = 1.88815e-09, cumulative = -6.64217e-07
GAMG:  Solving for p, Initial residual = 0.000985943, Final residual = 4.11738e-05, No Iterations 20
time step continuity errors : sum local = 4.10266e-10, global = 8.58127e-11, cumulative = -6.64132e-07
GAMG:  Solving for p, Initial residual = 4.13233e-05, Final residual = 9.31839e-07, No Iterations 32
time step continuity errors : sum local = 9.21836e-12, global = 2.22994e-12, cumulative = -6.64129e-07
smoothSolver:  Solving for nuTilda, Initial residual = 5.86261e-05, Final residual = 2.41241e-08, No Iterations 2
ExecutionTime = 129.62 s  ClockTime = 131 s

forceCoeffs forces write:
    Cm    = 0.11393
    Cd    = 0.227861
    Cl    = -0.000898841
    Cl(f) = 0.113481
    Cl(r) = -0.11438

Time = 0.84

Courant Number mean: 0.0135863 max: 0.358684
smoothSolver:  Solving for Ux, Initial residual = 0.000902512, Final residual = 1.46236e-09, No Iterations 2
smoothSolver:  Solving for Uy, Initial residual = 0.000742437, Final residual = 1.11872e-09, No Iterations 2
smoothSolver:  Solving for Uz, Initial residual = 0.245198, Final residual = 4.89177e-08, No Iterations 2
GAMG:  Solving for p, Initial residual = 0.0255645, Final residual = 0.00115854, No Iterations 5
time step continuity errors : sum local = 1.13704e-08, global = -3.19428e-09, cumulative = -6.67324e-07
GAMG:  Solving for p, Initial residual = 0.00119068, Final residual = 5.26206e-05, No Iterations 21
time step continuity errors : sum local = 5.11001e-10, global = 1.40863e-10, cumulative = -6.67183e-07
GAMG:  Solving for p, Initial residual = 5.2785e-05, Final residual = 8.17048e-07, No Iterations 38
time step continuity errors : sum local = 7.92037e-12, global = 1.98272e-12, cumulative = -6.67181e-07
smoothSolver:  Solving for nuTilda, Initial residual = 5.78109e-05, Final residual = 2.44428e-08, No Iterations 2
ExecutionTime = 133.99 s  ClockTime = 135 s

forceCoeffs forces write:
    Cm    = 0.111229
    Cd    = 0.222457
    Cl    = -0.000916821
    Cl(f) = 0.11077
    Cl(r) = -0.111687

Time = 0.87

Courant Number mean: 0.0135899 max: 0.359
smoothSolver:  Solving for Ux, Initial residual = 0.000887286, Final residual = 1.43537e-09, No Iterations 2
smoothSolver:  Solving for Uy, Initial residual = 0.000741, Final residual = 1.10958e-09, No Iterations 2
smoothSolver:  Solving for Uz, Initial residual = 0.274813, Final residual = 6.83452e-08, No Iterations 2
GAMG:  Solving for p, Initial residual = 0.0254869, Final residual = 0.00122692, No Iterations 5
time step continuity errors : sum local = 1.18061e-08, global = -3.04318e-09, cumulative = -6.70224e-07
GAMG:  Solving for p, Initial residual = 0.00124994, Final residual = 6.0876e-05, No Iterations 24
time step continuity errors : sum local = 5.84573e-10, global = -1.48901e-10, cumulative = -6.70373e-07
GAMG:  Solving for p, Initial residual = 5.97323e-05, Final residual = 9.99905e-07, No Iterations 38
time step continuity errors : sum local = 9.69614e-12, global = -2.50211e-12, cumulative = -6.70375e-07
smoothSolver:  Solving for nuTilda, Initial residual = 5.70386e-05, Final residual = 2.47647e-08, No Iterations 2
ExecutionTime = 138.49 s  ClockTime = 140 s

forceCoeffs forces write:
    Cm    = 0.113565
    Cd    = 0.22713
    Cl    = -0.0011374
    Cl(f) = 0.112996
    Cl(r) = -0.114134

Time = 0.9

Courant Number mean: 0.0135937 max: 0.359315
smoothSolver:  Solving for Ux, Initial residual = 0.000892639, Final residual = 1.47151e-09, No Iterations 2
smoothSolver:  Solving for Uy, Initial residual = 0.000728195, Final residual = 1.09359e-09, No Iterations 2
smoothSolver:  Solving for Uz, Initial residual = 0.269021, Final residual = 4.77759e-08, No Iterations 2
GAMG:  Solving for p, Initial residual = 0.0254614, Final residual = 0.00103748, No Iterations 6
time step continuity errors : sum local = 9.99272e-09, global = 2.31492e-09, cumulative = -6.6806e-07
GAMG:  Solving for p, Initial residual = 0.00108085, Final residual = 4.79428e-05, No Iterations 26
time step continuity errors : sum local = 4.52484e-10, global = 1.13216e-10, cumulative = -6.67947e-07
GAMG:  Solving for p, Initial residual = 4.77752e-05, Final residual = 9.71299e-07, No Iterations 36
time step continuity errors : sum local = 9.06222e-12, global = 2.32903e-12, cumulative = -6.67945e-07
smoothSolver:  Solving for nuTilda, Initial residual = 5.63025e-05, Final residual = 2.50771e-08, No Iterations 2
ExecutionTime = 143.22 s  ClockTime = 145 s

forceCoeffs forces write:
    Cm    = 0.107139
    Cd    = 0.214278
    Cl    = -0.000522108
    Cl(f) = 0.106878
    Cl(r) = -0.1074

Time = 0.93

Courant Number mean: 0.0135972 max: 0.359619
smoothSolver:  Solving for Ux, Initial residual = 0.000864149, Final residual = 1.40167e-09, No Iterations 2
smoothSolver:  Solving for Uy, Initial residual = 0.000726399, Final residual = 1.08702e-09, No Iterations 2
smoothSolver:  Solving for Uz, Initial residual = 0.27352, Final residual = 6.39756e-08, No Iterations 2
GAMG:  Solving for p, Initial residual = 0.0253848, Final residual = 0.00105822, No Iterations 7
time step continuity errors : sum local = 9.80752e-09, global = -1.56762e-09, cumulative = -6.69512e-07
GAMG:  Solving for p, Initial residual = 0.00105698, Final residual = 4.78343e-05, No Iterations 24
time step continuity errors : sum local = 4.54074e-10, global = -1.09994e-10, cumulative = -6.69622e-07
GAMG:  Solving for p, Initial residual = 4.67345e-05, Final residual = 9.18617e-07, No Iterations 36
time step continuity errors : sum local = 8.7979e-12, global = -2.23646e-12, cumulative = -6.69625e-07
smoothSolver:  Solving for nuTilda, Initial residual = 5.55883e-05, Final residual = 2.46259e-08, No Iterations 2
ExecutionTime = 147.71 s  ClockTime = 149 s

forceCoeffs forces write:
    Cm    = 0.114191
    Cd    = 0.228382
    Cl    = -0.00177217
    Cl(f) = 0.113305
    Cl(r) = -0.115077

Time = 0.96

Courant Number mean: 0.0136012 max: 0.359926
smoothSolver:  Solving for Ux, Initial residual = 0.00089103, Final residual = 1.4948e-09, No Iterations 2
smoothSolver:  Solving for Uy, Initial residual = 0.000717847, Final residual = 1.0706e-09, No Iterations 2
smoothSolver:  Solving for Uz, Initial residual = 0.251085, Final residual = 6.10344e-08, No Iterations 2
GAMG:  Solving for p, Initial residual = 0.024664, Final residual = 0.000936458, No Iterations 6
time step continuity errors : sum local = 8.91374e-09, global = 1.76381e-09, cumulative = -6.67861e-07
GAMG:  Solving for p, Initial residual = 0.000975957, Final residual = 4.33623e-05, No Iterations 24
time step continuity errors : sum local = 4.05008e-10, global = 1.01449e-10, cumulative = -6.67759e-07
GAMG:  Solving for p, Initial residual = 4.34233e-05, Final residual = 8.94067e-07, No Iterations 36
time step continuity errors : sum local = 8.27004e-12, global = 2.15067e-12, cumulative = -6.67757e-07
smoothSolver:  Solving for nuTilda, Initial residual = 5.48933e-05, Final residual = 2.38813e-08, No Iterations 2
ExecutionTime = 152.22 s  ClockTime = 154 s

forceCoeffs forces write:
    Cm    = 0.108888
    Cd    = 0.217776
    Cl    = 0.000573209
    Cl(f) = 0.109175
    Cl(r) = -0.108601

Time = 0.99

Courant Number mean: 0.013605 max: 0.360225
smoothSolver:  Solving for Ux, Initial residual = 0.000869803, Final residual = 1.44181e-09, No Iterations 2
smoothSolver:  Solving for Uy, Initial residual = 0.000711971, Final residual = 1.0623e-09, No Iterations 2
smoothSolver:  Solving for Uz, Initial residual = 0.255055, Final residual = 5.76855e-08, No Iterations 2
GAMG:  Solving for p, Initial residual = 0.0252345, Final residual = 0.000821878, No Iterations 6
time step continuity errors : sum local = 7.55213e-09, global = 1.43336e-09, cumulative = -6.66324e-07
GAMG:  Solving for p, Initial residual = 0.000859558, Final residual = 3.76103e-05, No Iterations 22
time step continuity errors : sum local = 3.39956e-10, global = 7.81037e-11, cumulative = -6.66246e-07
GAMG:  Solving for p, Initial residual = 3.76376e-05, Final residual = 8.37201e-07, No Iterations 34
time step continuity errors : sum local = 7.51202e-12, global = 1.86916e-12, cumulative = -6.66244e-07
smoothSolver:  Solving for nuTilda, Initial residual = 5.42053e-05, Final residual = 2.41147e-08, No Iterations 2
ExecutionTime = 156.64 s  ClockTime = 158 s

forceCoeffs forces write:
    Cm    = 0.104725
    Cd    = 0.209449
    Cl    = 0.00122249
    Cl(f) = 0.105336
    Cl(r) = -0.104113

Time = 1.02

Courant Number mean: 0.0136086 max: 0.360513
smoothSolver:  Solving for Ux, Initial residual = 0.000849159, Final residual = 1.39297e-09, No Iterations 2
smoothSolver:  Solving for Uy, Initial residual = 0.000703977, Final residual = 1.05441e-09, No Iterations 2
smoothSolver:  Solving for Uz, Initial residual = 0.255834, Final residual = 7.73632e-08, No Iterations 2
GAMG:  Solving for p, Initial residual = 0.0254103, Final residual = 0.00120652, No Iterations 4
time step continuity errors : sum local = 1.07562e-08, global = 2.0736e-09, cumulative = -6.6417e-07
GAMG:  Solving for p, Initial residual = 0.00123224, Final residual = 5.71849e-05, No Iterations 18
time step continuity errors : sum local = 5.05902e-10, global = 1.5783e-10, cumulative = -6.64013e-07
GAMG:  Solving for p, Initial residual = 5.7184e-05, Final residual = 9.74652e-07, No Iterations 38
time step continuity errors : sum local = 8.6132e-12, global = 3.16053e-12, cumulative = -6.64009e-07
smoothSolver:  Solving for nuTilda, Initial residual = 5.35161e-05, Final residual = 2.43204e-08, No Iterations 2
ExecutionTime = 160.93 s  ClockTime = 162 s

forceCoeffs forces write:
    Cm    = 0.103682
    Cd    = 0.207365
    Cl    = -0.00100935
    Cl(f) = 0.103178
    Cl(r) = -0.104187

Time = 1.05

Courant Number mean: 0.0136122 max: 0.360794
smoothSolver:  Solving for Ux, Initial residual = 0.000841847, Final residual = 1.38207e-09, No Iterations 2
smoothSolver:  Solving for Uy, Initial residual = 0.000695363, Final residual = 1.04233e-09, No Iterations 2
smoothSolver:  Solving for Uz, Initial residual = 0.256219, Final residual = 5.56228e-08, No Iterations 2
GAMG:  Solving for p, Initial residual = 0.0255026, Final residual = 0.00113856, No Iterations 5
time step continuity errors : sum local = 1.00093e-08, global = -2.49091e-09, cumulative = -6.665e-07
GAMG:  Solving for p, Initial residual = 0.00115604, Final residual = 5.27204e-05, No Iterations 22
time step continuity errors : sum local = 4.64133e-10, global = -1.05018e-10, cumulative = -6.66605e-07
GAMG:  Solving for p, Initial residual = 5.14737e-05, Final residual = 8.16235e-07, No Iterations 36
time step continuity errors : sum local = 7.25756e-12, global = -1.72801e-12, cumulative = -6.66607e-07
smoothSolver:  Solving for nuTilda, Initial residual = 5.28235e-05, Final residual = 2.451e-08, No Iterations 2
ExecutionTime = 165.26 s  ClockTime = 167 s

forceCoeffs forces write:
    Cm    = 0.106357
    Cd    = 0.212714
    Cl    = 0.00146287
    Cl(f) = 0.107089
    Cl(r) = -0.105626

Time = 1.08

Courant Number mean: 0.0136159 max: 0.361071
smoothSolver:  Solving for Ux, Initial residual = 0.000850281, Final residual = 1.41991e-09, No Iterations 2
smoothSolver:  Solving for Uy, Initial residual = 0.000686223, Final residual = 1.03175e-09, No Iterations 2
smoothSolver:  Solving for Uz, Initial residual = 0.276718, Final residual = 7.29777e-08, No Iterations 2
GAMG:  Solving for p, Initial residual = 0.0253205, Final residual = 0.00116499, No Iterations 6
time step continuity errors : sum local = 1.0304e-08, global = 2.25106e-09, cumulative = -6.64356e-07
GAMG:  Solving for p, Initial residual = 0.0012061, Final residual = 4.86125e-05, No Iterations 26
time step continuity errors : sum local = 4.22283e-10, global = 1.0256e-10, cumulative = -6.64253e-07
GAMG:  Solving for p, Initial residual = 4.835e-05, Final residual = 9.45977e-07, No Iterations 36
time step continuity errors : sum local = 8.12145e-12, global = 2.06578e-12, cumulative = -6.64251e-07
smoothSolver:  Solving for nuTilda, Initial residual = 5.21109e-05, Final residual = 2.46682e-08, No Iterations 2
ExecutionTime = 169.97 s  ClockTime = 172 s

forceCoeffs forces write:
    Cm    = 0.100802
    Cd    = 0.201604
    Cl    = 0.00214412
    Cl(f) = 0.101874
    Cl(r) = -0.0997302

Time = 1.11

Courant Number mean: 0.0136194 max: 0.361337
smoothSolver:  Solving for Ux, Initial residual = 0.00082641, Final residual = 1.35711e-09, No Iterations 2
smoothSolver:  Solving for Uy, Initial residual = 0.000685901, Final residual = 1.02805e-09, No Iterations 2
smoothSolver:  Solving for Uz, Initial residual = 0.23887, Final residual = 4.91893e-08, No Iterations 2
GAMG:  Solving for p, Initial residual = 0.0261396, Final residual = 0.00112521, No Iterations 6
time step continuity errors : sum local = 9.6053e-09, global = 2.87219e-09, cumulative = -6.61379e-07
GAMG:  Solving for p, Initial residual = 0.00115121, Final residual = 5.09994e-05, No Iterations 27
time step continuity errors : sum local = 4.34082e-10, global = -1.37406e-10, cumulative = -6.61517e-07
GAMG:  Solving for p, Initial residual = 5.07859e-05, Final residual = 9.96466e-07, No Iterations 38
time step continuity errors : sum local = 8.49324e-12, global = -2.4596e-12, cumulative = -6.61519e-07
smoothSolver:  Solving for nuTilda, Initial residual = 5.13794e-05, Final residual = 2.47973e-08, No Iterations 2
ExecutionTime = 174.72 s  ClockTime = 176 s

forceCoeffs forces write:
    Cm    = 0.101255
    Cd    = 0.20251
    Cl    = -0.00252382
    Cl(f) = 0.0999929
    Cl(r) = -0.102517

Time = 1.14

Courant Number mean: 0.0136229 max: 0.361595
smoothSolver:  Solving for Ux, Initial residual = 0.000827608, Final residual = 1.36497e-09, No Iterations 2
smoothSolver:  Solving for Uy, Initial residual = 0.000677159, Final residual = 1.01542e-09, No Iterations 2
smoothSolver:  Solving for Uz, Initial residual = 0.233578, Final residual = 5.52492e-08, No Iterations 2
GAMG:  Solving for p, Initial residual = 0.0260697, Final residual = 0.00128814, No Iterations 5
time step continuity errors : sum local = 1.09294e-08, global = -2.28181e-09, cumulative = -6.63801e-07
GAMG:  Solving for p, Initial residual = 0.00130291, Final residual = 5.55383e-05, No Iterations 22
time step continuity errors : sum local = 4.7348e-10, global = -1.03368e-10, cumulative = -6.63904e-07
GAMG:  Solving for p, Initial residual = 5.42023e-05, Final residual = 8.99424e-07, No Iterations 34
time step continuity errors : sum local = 7.73915e-12, global = -1.76436e-12, cumulative = -6.63906e-07
smoothSolver:  Solving for nuTilda, Initial residual = 5.06228e-05, Final residual = 2.4907e-08, No Iterations 2
ExecutionTime = 179.01 s  ClockTime = 181 s

forceCoeffs forces write:
    Cm    = 0.104029
    Cd    = 0.208059
    Cl    = 0.00147471
    Cl(f) = 0.104767
    Cl(r) = -0.103292

Time = 1.17

Courant Number mean: 0.0136267 max: 0.361849
smoothSolver:  Solving for Ux, Initial residual = 0.000833588, Final residual = 1.40262e-09, No Iterations 2
smoothSolver:  Solving for Uy, Initial residual = 0.000673943, Final residual = 1.00848e-09, No Iterations 2
smoothSolver:  Solving for Uz, Initial residual = 0.219452, Final residual = 4.08643e-08, No Iterations 2
GAMG:  Solving for p, Initial residual = 0.0256994, Final residual = 0.000943846, No Iterations 6
time step continuity errors : sum local = 8.08453e-09, global = 1.97638e-09, cumulative = -6.6193e-07
GAMG:  Solving for p, Initial residual = 0.000972545, Final residual = 4.11436e-05, No Iterations 20
time step continuity errors : sum local = 3.4995e-10, global = 7.86367e-11, cumulative = -6.61851e-07
GAMG:  Solving for p, Initial residual = 4.07072e-05, Final residual = 8.97416e-07, No Iterations 28
time step continuity errors : sum local = 7.61371e-12, global = 1.69601e-12, cumulative = -6.61849e-07
smoothSolver:  Solving for nuTilda, Initial residual = 4.98375e-05, Final residual = 2.49895e-08, No Iterations 2
ExecutionTime = 182.93 s  ClockTime = 185 s

forceCoeffs forces write:
    Cm    = 0.102851
    Cd    = 0.205701
    Cl    = -0.000303743
    Cl(f) = 0.102699
    Cl(r) = -0.103002

Time = 1.2

Courant Number mean: 0.0136304 max: 0.362097
smoothSolver:  Solving for Ux, Initial residual = 0.0008314, Final residual = 1.39521e-09, No Iterations 2
smoothSolver:  Solving for Uy, Initial residual = 0.000665537, Final residual = 9.97594e-10, No Iterations 2
smoothSolver:  Solving for Uz, Initial residual = 0.269659, Final residual = 6.32634e-08, No Iterations 2
GAMG:  Solving for p, Initial residual = 0.0255439, Final residual = 0.000910052, No Iterations 6
time step continuity errors : sum local = 7.67963e-09, global = 1.69273e-09, cumulative = -6.60156e-07
GAMG:  Solving for p, Initial residual = 0.000944295, Final residual = 4.17152e-05, No Iterations 22
time step continuity errors : sum local = 3.47004e-10, global = 8.18287e-11, cumulative = -6.60075e-07
GAMG:  Solving for p, Initial residual = 4.15295e-05, Final residual = 8.52176e-07, No Iterations 34
time step continuity errors : sum local = 7.04143e-12, global = 1.68057e-12, cumulative = -6.60073e-07
smoothSolver:  Solving for nuTilda, Initial residual = 4.90174e-05, Final residual = 2.50548e-08, No Iterations 2
ExecutionTime = 187.34 s  ClockTime = 189 s

forceCoeffs forces write:
    Cm    = 0.0994399
    Cd    = 0.19888
    Cl    = -0.00147033
    Cl(f) = 0.0987048
    Cl(r) = -0.100175

Time = 1.23

Courant Number mean: 0.013634 max: 0.362334
smoothSolver:  Solving for Ux, Initial residual = 0.000812896, Final residual = 1.35604e-09, No Iterations 2
smoothSolver:  Solving for Uy, Initial residual = 0.000662656, Final residual = 9.92877e-10, No Iterations 2
smoothSolver:  Solving for Uz, Initial residual = 0.248859, Final residual = 5.52332e-08, No Iterations 2
GAMG:  Solving for p, Initial residual = 0.0256688, Final residual = 0.000864719, No Iterations 5
time step continuity errors : sum local = 7.11049e-09, global = -2.00879e-09, cumulative = -6.62082e-07
GAMG:  Solving for p, Initial residual = 0.000885488, Final residual = 3.53932e-05, No Iterations 22
time step continuity errors : sum local = 2.9167e-10, global = -6.7544e-11, cumulative = -6.62149e-07
GAMG:  Solving for p, Initial residual = 3.48451e-05, Final residual = 9.4256e-07, No Iterations 32
time step continuity errors : sum local = 7.8251e-12, global = -1.93167e-12, cumulative = -6.62151e-07
smoothSolver:  Solving for nuTilda, Initial residual = 4.81665e-05, Final residual = 2.50935e-08, No Iterations 2
ExecutionTime = 191.51 s  ClockTime = 193 s

forceCoeffs forces write:
    Cm    = 0.101369
    Cd    = 0.202737
    Cl    = -0.000865334
    Cl(f) = 0.100936
    Cl(r) = -0.101801

Time = 1.26

Courant Number mean: 0.0136376 max: 0.362566
smoothSolver:  Solving for Ux, Initial residual = 0.000820428, Final residual = 1.38119e-09, No Iterations 2
smoothSolver:  Solving for Uy, Initial residual = 0.000660074, Final residual = 9.85392e-10, No Iterations 2
smoothSolver:  Solving for Uz, Initial residual = 0.239868, Final residual = 5.4482e-08, No Iterations 2
GAMG:  Solving for p, Initial residual = 0.025713, Final residual = 0.000968346, No Iterations 6
time step continuity errors : sum local = 8.00318e-09, global = 1.83482e-09, cumulative = -6.60316e-07
GAMG:  Solving for p, Initial residual = 0.00100709, Final residual = 4.5073e-05, No Iterations 24
time step continuity errors : sum local = 3.67001e-10, global = 9.32353e-11, cumulative = -6.60223e-07
GAMG:  Solving for p, Initial residual = 4.50065e-05, Final residual = 9.31105e-07, No Iterations 36
time step continuity errors : sum local = 7.51944e-12, global = 1.9719e-12, cumulative = -6.60221e-07
smoothSolver:  Solving for nuTilda, Initial residual = 4.72899e-05, Final residual = 2.51095e-08, No Iterations 2
ExecutionTime = 195.95 s  ClockTime = 198 s

forceCoeffs forces write:
    Cm    = 0.0978536
    Cd    = 0.195707
    Cl    = 0.000392901
    Cl(f) = 0.09805
    Cl(r) = -0.0976571

Time = 1.29

Courant Number mean: 0.0136412 max: 0.362788
smoothSolver:  Solving for Ux, Initial residual = 0.000806146, Final residual = 1.3404e-09, No Iterations 2
smoothSolver:  Solving for Uy, Initial residual = 0.000653616, Final residual = 9.79378e-10, No Iterations 2
smoothSolver:  Solving for Uz, Initial residual = 0.244743, Final residual = 5.85101e-08, No Iterations 2
GAMG:  Solving for p, Initial residual = 0.0262686, Final residual = 0.00106287, No Iterations 5
time step continuity errors : sum local = 8.54175e-09, global = -2.51677e-09, cumulative = -6.62738e-07
GAMG:  Solving for p, Initial residual = 0.00108865, Final residual = 5.17383e-05, No Iterations 20
time step continuity errors : sum local = 4.13716e-10, global = -1.18799e-10, cumulative = -6.62857e-07
GAMG:  Solving for p, Initial residual = 5.12264e-05, Final residual = 8.81749e-07, No Iterations 38
time step continuity errors : sum local = 7.06959e-12, global = -1.99202e-12, cumulative = -6.62859e-07
smoothSolver:  Solving for nuTilda, Initial residual = 4.63829e-05, Final residual = 2.51106e-08, No Iterations 2
ExecutionTime = 200.4 s  ClockTime = 202 s

forceCoeffs forces write:
    Cm    = 0.0978825
    Cd    = 0.195765
    Cl    = -0.000433457
    Cl(f) = 0.0976658
    Cl(r) = -0.0980992

Time = 1.32

Courant Number mean: 0.0136447 max: 0.363002
smoothSolver:  Solving for Ux, Initial residual = 0.000802326, Final residual = 1.34035e-09, No Iterations 2
smoothSolver:  Solving for Uy, Initial residual = 0.000651841, Final residual = 9.73531e-10, No Iterations 2
smoothSolver:  Solving for Uz, Initial residual = 0.247887, Final residual = 6.05524e-08, No Iterations 2
GAMG:  Solving for p, Initial residual = 0.0263435, Final residual = 0.00113551, No Iterations 4
time step continuity errors : sum local = 9.06648e-09, global = 1.76808e-09, cumulative = -6.61091e-07
GAMG:  Solving for p, Initial residual = 0.00115895, Final residual = 4.85059e-05, No Iterations 21
time step continuity errors : sum local = 3.85268e-10, global = -1.18323e-10, cumulative = -6.61209e-07
GAMG:  Solving for p, Initial residual = 4.86546e-05, Final residual = 9.42402e-07, No Iterations 38
time step continuity errors : sum local = 7.48945e-12, global = -2.12199e-12, cumulative = -6.61211e-07
smoothSolver:  Solving for nuTilda, Initial residual = 4.54522e-05, Final residual = 2.51513e-08, No Iterations 2
ExecutionTime = 204.77 s  ClockTime = 207 s

forceCoeffs forces write:
    Cm    = 0.0978675
    Cd    = 0.195735
    Cl    = -0.00196028
    Cl(f) = 0.0968873
    Cl(r) = -0.0988476

Time = 1.35

Courant Number mean: 0.0136483 max: 0.363325
smoothSolver:  Solving for Ux, Initial residual = 0.000799345, Final residual = 1.34169e-09, No Iterations 2
smoothSolver:  Solving for Uy, Initial residual = 0.000642867, Final residual = 9.65826e-10, No Iterations 2
smoothSolver:  Solving for Uz, Initial residual = 0.244709, Final residual = 5.23256e-08, No Iterations 2
GAMG:  Solving for p, Initial residual = 0.0264022, Final residual = 0.00113295, No Iterations 5
time step continuity errors : sum local = 8.96901e-09, global = -2.43266e-09, cumulative = -6.63644e-07
GAMG:  Solving for p, Initial residual = 0.00115117, Final residual = 5.0551e-05, No Iterations 22
time step continuity errors : sum local = 4.00438e-10, global = -9.26665e-11, cumulative = -6.63736e-07
GAMG:  Solving for p, Initial residual = 4.94987e-05, Final residual = 8.10888e-07, No Iterations 36
time step continuity errors : sum local = 6.47673e-12, global = -1.5552e-12, cumulative = -6.63738e-07
smoothSolver:  Solving for nuTilda, Initial residual = 4.45135e-05, Final residual = 2.50198e-08, No Iterations 2
ExecutionTime = 209.34 s  ClockTime = 211 s

forceCoeffs forces write:
    Cm    = 0.0999292
    Cd    = 0.199858
    Cl    = -0.00168845
    Cl(f) = 0.0990849
    Cl(r) = -0.100773

Time = 1.38

Courant Number mean: 0.013652 max: 0.363778
smoothSolver:  Solving for Ux, Initial residual = 0.000807505, Final residual = 1.37003e-09, No Iterations 2
smoothSolver:  Solving for Uy, Initial residual = 0.000635754, Final residual = 9.55882e-10, No Iterations 2
smoothSolver:  Solving for Uz, Initial residual = 0.264735, Final residual = 6.17495e-08, No Iterations 2
GAMG:  Solving for p, Initial residual = 0.0262559, Final residual = 0.00122512, No Iterations 5
time step continuity errors : sum local = 9.75151e-09, global = -2.76732e-09, cumulative = -6.66505e-07
GAMG:  Solving for p, Initial residual = 0.00125622, Final residual = 5.43512e-05, No Iterations 23
time step continuity errors : sum local = 4.28942e-10, global = 1.14557e-10, cumulative = -6.66391e-07
GAMG:  Solving for p, Initial residual = 5.44304e-05, Final residual = 9.77254e-07, No Iterations 38
time step continuity errors : sum local = 7.68842e-12, global = 2.0766e-12, cumulative = -6.66389e-07
smoothSolver:  Solving for nuTilda, Initial residual = 4.3573e-05, Final residual = 2.49588e-08, No Iterations 2
ExecutionTime = 213.77 s  ClockTime = 216 s

forceCoeffs forces write:
    Cm    = 0.098054
    Cd    = 0.196108
    Cl    = 0.000933003
    Cl(f) = 0.0985205
    Cl(r) = -0.0975875

Time = 1.41

Courant Number mean: 0.0136557 max: 0.364228
smoothSolver:  Solving for Ux, Initial residual = 0.000802512, Final residual = 1.35057e-09, No Iterations 2
smoothSolver:  Solving for Uy, Initial residual = 0.00063934, Final residual = 9.54389e-10, No Iterations 2
smoothSolver:  Solving for Uz, Initial residual = 0.227695, Final residual = 5.55239e-08, No Iterations 2
GAMG:  Solving for p, Initial residual = 0.0261681, Final residual = 0.001246, No Iterations 4
time step continuity errors : sum local = 9.76124e-09, global = 1.84686e-09, cumulative = -6.64542e-07
GAMG:  Solving for p, Initial residual = 0.00127253, Final residual = 5.29077e-05, No Iterations 16
time step continuity errors : sum local = 4.11032e-10, global = 7.97034e-11, cumulative = -6.64462e-07
GAMG:  Solving for p, Initial residual = 5.27877e-05, Final residual = 9.56489e-07, No Iterations 30
time step continuity errors : sum local = 7.4064e-12, global = 1.67456e-12, cumulative = -6.6446e-07
smoothSolver:  Solving for nuTilda, Initial residual = 4.26361e-05, Final residual = 2.48505e-08, No Iterations 2
ExecutionTime = 217.77 s  ClockTime = 220 s

forceCoeffs forces write:
    Cm    = 0.0968263
    Cd    = 0.193653
    Cl    = -2.06075e-05
    Cl(f) = 0.096816
    Cl(r) = -0.0968366

Time = 1.44

Courant Number mean: 0.0136593 max: 0.364675
smoothSolver:  Solving for Ux, Initial residual = 0.000794291, Final residual = 1.33413e-09, No Iterations 2
smoothSolver:  Solving for Uy, Initial residual = 0.000632011, Final residual = 9.47353e-10, No Iterations 2
smoothSolver:  Solving for Uz, Initial residual = 0.237377, Final residual = 5.60859e-08, No Iterations 2
GAMG:  Solving for p, Initial residual = 0.0263302, Final residual = 0.00119224, No Iterations 5
time step continuity errors : sum local = 9.19673e-09, global = -2.20799e-09, cumulative = -6.66668e-07
GAMG:  Solving for p, Initial residual = 0.00120224, Final residual = 4.68268e-05, No Iterations 22
time step continuity errors : sum local = 3.64456e-10, global = -7.73424e-11, cumulative = -6.66746e-07
GAMG:  Solving for p, Initial residual = 4.56661e-05, Final residual = 8.48031e-07, No Iterations 34
time step continuity errors : sum local = 6.6713e-12, global = -1.58809e-12, cumulative = -6.66747e-07
smoothSolver:  Solving for nuTilda, Initial residual = 4.17152e-05, Final residual = 2.47024e-08, No Iterations 2
ExecutionTime = 222 s  ClockTime = 224 s

forceCoeffs forces write:
    Cm    = 0.0999145
    Cd    = 0.199829
    Cl    = 0.000928988
    Cl(f) = 0.100379
    Cl(r) = -0.09945

Time = 1.47

Courant Number mean: 0.013663 max: 0.365124
smoothSolver:  Solving for Ux, Initial residual = 0.000803283, Final residual = 1.3735e-09, No Iterations 2
smoothSolver:  Solving for Uy, Initial residual = 0.000638913, Final residual = 9.44008e-10, No Iterations 2
smoothSolver:  Solving for Uz, Initial residual = 0.230733, Final residual = 5.04139e-08, No Iterations 2
GAMG:  Solving for p, Initial residual = 0.0265212, Final residual = 0.000987971, No Iterations 12
time step continuity errors : sum local = 7.74236e-09, global = 1.21856e-09, cumulative = -6.65529e-07
GAMG:  Solving for p, Initial residual = 0.00108966, Final residual = 5.11987e-05, No Iterations 24
time step continuity errors : sum local = 3.74421e-10, global = 8.74997e-11, cumulative = -6.65441e-07
GAMG:  Solving for p, Initial residual = 5.06073e-05, Final residual = 9.40272e-07, No Iterations 36
time step continuity errors : sum local = 6.82053e-12, global = 1.7022e-12, cumulative = -6.6544e-07
smoothSolver:  Solving for nuTilda, Initial residual = 4.08224e-05, Final residual = 2.4502e-08, No Iterations 2
ExecutionTime = 226.68 s  ClockTime = 229 s

forceCoeffs forces write:
    Cm    = 0.088844
    Cd    = 0.177688
    Cl    = -0.000464332
    Cl(f) = 0.0886119
    Cl(r) = -0.0890762

Time = 1.5

Courant Number mean: 0.0136663 max: 0.365559
smoothSolver:  Solving for Ux, Initial residual = 0.000757824, Final residual = 1.2341e-09, No Iterations 2
smoothSolver:  Solving for Uy, Initial residual = 0.000633116, Final residual = 9.43143e-10, No Iterations 2
smoothSolver:  Solving for Uz, Initial residual = 0.242073, Final residual = 5.31525e-08, No Iterations 2
GAMG:  Solving for p, Initial residual = 0.0286296, Final residual = 0.00123468, No Iterations 10
time step continuity errors : sum local = 8.92375e-09, global = -1.14856e-09, cumulative = -6.66588e-07
GAMG:  Solving for p, Initial residual = 0.00120599, Final residual = 5.60939e-05, No Iterations 22
time step continuity errors : sum local = 4.25818e-10, global = -9.79913e-11, cumulative = -6.66686e-07
GAMG:  Solving for p, Initial residual = 5.46551e-05, Final residual = 9.86996e-07, No Iterations 36
time step continuity errors : sum local = 7.56785e-12, global = -1.87377e-12, cumulative = -6.66688e-07
smoothSolver:  Solving for nuTilda, Initial residual = 3.99789e-05, Final residual = 2.42528e-08, No Iterations 2
ExecutionTime = 231.55 s  ClockTime = 234 s

forceCoeffs forces write:
    Cm    = 0.0979716
    Cd    = 0.195943
    Cl    = 0.00239676
    Cl(f) = 0.0991699
    Cl(r) = -0.0967732

Time = 1.53

Courant Number mean: 0.0136699 max: 0.365999
smoothSolver:  Solving for Ux, Initial residual = 0.000792511, Final residual = 1.34186e-09, No Iterations 2
smoothSolver:  Solving for Uy, Initial residual = 0.000629207, Final residual = 9.34962e-10, No Iterations 2
smoothSolver:  Solving for Uz, Initial residual = 0.247422, Final residual = 5.68349e-08, No Iterations 2
GAMG:  Solving for p, Initial residual = 0.0269866, Final residual = 0.00111808, No Iterations 6
time step continuity errors : sum local = 8.54669e-09, global = 1.7366e-09, cumulative = -6.64951e-07
GAMG:  Solving for p, Initial residual = 0.00116132, Final residual = 4.73205e-05, No Iterations 22
time step continuity errors : sum local = 3.55089e-10, global = 8.36731e-11, cumulative = -6.64868e-07
GAMG:  Solving for p, Initial residual = 4.71763e-05, Final residual = 8.11415e-07, No Iterations 34
time step continuity errors : sum local = 6.01942e-12, global = 1.39099e-12, cumulative = -6.64866e-07
smoothSolver:  Solving for nuTilda, Initial residual = 3.91901e-05, Final residual = 2.39913e-08, No Iterations 2
ExecutionTime = 235.81 s  ClockTime = 238 s

forceCoeffs forces write:
    Cm    = 0.0939947
    Cd    = 0.187989
    Cl    = -0.00160875
    Cl(f) = 0.0931904
    Cl(r) = -0.0947991

Time = 1.56

Courant Number mean: 0.0136735 max: 0.366436
smoothSolver:  Solving for Ux, Initial residual = 0.000775846, Final residual = 1.29676e-09, No Iterations 2
smoothSolver:  Solving for Uy, Initial residual = 0.000627794, Final residual = 9.29903e-10, No Iterations 2
smoothSolver:  Solving for Uz, Initial residual = 0.217474, Final residual = 5.04585e-08, No Iterations 2
GAMG:  Solving for p, Initial residual = 0.0270593, Final residual = 0.000999017, No Iterations 4
time step continuity errors : sum local = 7.38209e-09, global = 1.34754e-09, cumulative = -6.63519e-07
GAMG:  Solving for p, Initial residual = 0.00102473, Final residual = 4.3795e-05, No Iterations 22
time step continuity errors : sum local = 3.21499e-10, global = 9.1964e-11, cumulative = -6.63427e-07
GAMG:  Solving for p, Initial residual = 4.39275e-05, Final residual = 8.13273e-07, No Iterations 38
time step continuity errors : sum local = 5.94844e-12, global = 1.66839e-12, cumulative = -6.63425e-07
smoothSolver:  Solving for nuTilda, Initial residual = 3.84595e-05, Final residual = 2.35367e-08, No Iterations 2
ExecutionTime = 240.25 s  ClockTime = 243 s

forceCoeffs forces write:
    Cm    = 0.0929156
    Cd    = 0.185831
    Cl    = 0.000192077
    Cl(f) = 0.0930117
    Cl(r) = -0.0928196

Time = 1.59

Courant Number mean: 0.0136769 max: 0.36687
smoothSolver:  Solving for Ux, Initial residual = 0.000770398, Final residual = 1.28091e-09, No Iterations 2
smoothSolver:  Solving for Uy, Initial residual = 0.000623802, Final residual = 9.26491e-10, No Iterations 2
smoothSolver:  Solving for Uz, Initial residual = 0.221129, Final residual = 7.09618e-08, No Iterations 2
GAMG:  Solving for p, Initial residual = 0.0270651, Final residual = 0.00108073, No Iterations 5
time step continuity errors : sum local = 7.8766e-09, global = -2.4001e-09, cumulative = -6.65825e-07
GAMG:  Solving for p, Initial residual = 0.00110424, Final residual = 4.3072e-05, No Iterations 22
time step continuity errors : sum local = 3.14101e-10, global = -6.59527e-11, cumulative = -6.65891e-07
GAMG:  Solving for p, Initial residual = 4.21333e-05, Final residual = 9.27513e-07, No Iterations 32
time step continuity errors : sum local = 6.81425e-12, global = -1.59724e-12, cumulative = -6.65893e-07
smoothSolver:  Solving for nuTilda, Initial residual = 3.7784e-05, Final residual = 2.23268e-08, No Iterations 2
ExecutionTime = 244.38 s  ClockTime = 247 s

forceCoeffs forces write:
    Cm    = 0.094447
    Cd    = 0.188894
    Cl    = 0.00133187
    Cl(f) = 0.0951129
    Cl(r) = -0.093781

Time = 1.62

Courant Number mean: 0.0136804 max: 0.367304
smoothSolver:  Solving for Ux, Initial residual = 0.000771986, Final residual = 1.29668e-09, No Iterations 2
smoothSolver:  Solving for Uy, Initial residual = 0.000627596, Final residual = 9.2276e-10, No Iterations 2
smoothSolver:  Solving for Uz, Initial residual = 0.220337, Final residual = 4.32843e-08, No Iterations 2
GAMG:  Solving for p, Initial residual = 0.0273114, Final residual = 0.00110537, No Iterations 8
time step continuity errors : sum local = 8.09815e-09, global = 1.5194e-09, cumulative = -6.64373e-07
GAMG:  Solving for p, Initial residual = 0.00115989, Final residual = 5.08066e-05, No Iterations 22
time step continuity errors : sum local = 3.63186e-10, global = 8.09797e-11, cumulative = -6.64292e-07
GAMG:  Solving for p, Initial residual = 5.02882e-05, Final residual = 8.35717e-07, No Iterations 34
time step continuity errors : sum local = 5.91455e-12, global = 1.34668e-12, cumulative = -6.64291e-07
smoothSolver:  Solving for nuTilda, Initial residual = 3.71648e-05, Final residual = 2.13008e-08, No Iterations 2
ExecutionTime = 248.81 s  ClockTime = 251 s

forceCoeffs forces write:
    Cm    = 0.0900689
    Cd    = 0.180138
    Cl    = -0.00416421
    Cl(f) = 0.0879868
    Cl(r) = -0.092151

Time = 1.65

Courant Number mean: 0.0136837 max: 0.367732
smoothSolver:  Solving for Ux, Initial residual = 0.000755216, Final residual = 1.24171e-09, No Iterations 2
smoothSolver:  Solving for Uy, Initial residual = 0.000621516, Final residual = 9.18468e-10, No Iterations 2
smoothSolver:  Solving for Uz, Initial residual = 0.225861, Final residual = 4.46469e-08, No Iterations 2
GAMG:  Solving for p, Initial residual = 0.028219, Final residual = 0.00111683, No Iterations 5
time step continuity errors : sum local = 7.87587e-09, global = -2.2626e-09, cumulative = -6.66554e-07
GAMG:  Solving for p, Initial residual = 0.00113354, Final residual = 5.16606e-05, No Iterations 22
time step continuity errors : sum local = 3.67168e-10, global = -9.65258e-11, cumulative = -6.6665e-07
GAMG:  Solving for p, Initial residual = 5.04257e-05, Final residual = 8.98323e-07, No Iterations 34
time step continuity errors : sum local = 6.42905e-12, global = -1.64795e-12, cumulative = -6.66652e-07
smoothSolver:  Solving for nuTilda, Initial residual = 3.66038e-05, Final residual = 2.11195e-08, No Iterations 2
ExecutionTime = 253.03 s  ClockTime = 255 s

forceCoeffs forces write:
    Cm    = 0.0924043
    Cd    = 0.184809
    Cl    = 0.000965349
    Cl(f) = 0.092887
    Cl(r) = -0.0919216

Time = 1.68

Courant Number mean: 0.0136871 max: 0.36816
smoothSolver:  Solving for Ux, Initial residual = 0.000760951, Final residual = 1.2653e-09, No Iterations 2
smoothSolver:  Solving for Uy, Initial residual = 0.000622589, Final residual = 9.1419e-10, No Iterations 2
smoothSolver:  Solving for Uz, Initial residual = 0.221967, Final residual = 5.80074e-08, No Iterations 2
GAMG:  Solving for p, Initial residual = 0.0276499, Final residual = 0.00131136, No Iterations 6
time step continuity errors : sum local = 9.36685e-09, global = -2.17633e-09, cumulative = -6.68828e-07
GAMG:  Solving for p, Initial residual = 0.00129859, Final residual = 5.55303e-05, No Iterations 24
time step continuity errors : sum local = 4.074e-10, global = -9.7497e-11, cumulative = -6.68926e-07
GAMG:  Solving for p, Initial residual = 5.3726e-05, Final residual = 8.45228e-07, No Iterations 38
time step continuity errors : sum local = 6.3141e-12, global = -1.61851e-12, cumulative = -6.68927e-07
smoothSolver:  Solving for nuTilda, Initial residual = 3.6089e-05, Final residual = 2.11616e-08, No Iterations 2
ExecutionTime = 257.66 s  ClockTime = 260 s

forceCoeffs forces write:
    Cm    = 0.0992002
    Cd    = 0.198401
    Cl    = -0.00132473
    Cl(f) = 0.0985379
    Cl(r) = -0.0998626

Time = 1.71

Courant Number mean: 0.0136909 max: 0.368597
smoothSolver:  Solving for Ux, Initial residual = 0.000790289, Final residual = 1.35375e-09, No Iterations 2
smoothSolver:  Solving for Uy, Initial residual = 0.000618827, Final residual = 9.03248e-10, No Iterations 2
smoothSolver:  Solving for Uz, Initial residual = 0.242464, Final residual = 4.42153e-08, No Iterations 2
GAMG:  Solving for p, Initial residual = 0.0269173, Final residual = 0.00110718, No Iterations 10
time step continuity errors : sum local = 8.24625e-09, global = 1.12448e-09, cumulative = -6.67803e-07
GAMG:  Solving for p, Initial residual = 0.00119515, Final residual = 5.59447e-05, No Iterations 22
time step continuity errors : sum local = 3.95421e-10, global = 9.0036e-11, cumulative = -6.67713e-07
GAMG:  Solving for p, Initial residual = 5.56317e-05, Final residual = 8.07684e-07, No Iterations 38
time step continuity errors : sum local = 5.65171e-12, global = 1.41164e-12, cumulative = -6.67711e-07
smoothSolver:  Solving for nuTilda, Initial residual = 3.56189e-05, Final residual = 2.11141e-08, No Iterations 2
ExecutionTime = 262.45 s  ClockTime = 265 s

forceCoeffs forces write:
    Cm    = 0.0912096
    Cd    = 0.182419
    Cl    = -0.000458191
    Cl(f) = 0.0909805
    Cl(r) = -0.0914387

Time = 1.74

Courant Number mean: 0.0136943 max: 0.369026
smoothSolver:  Solving for Ux, Initial residual = 0.000758153, Final residual = 1.25706e-09, No Iterations 2
smoothSolver:  Solving for Uy, Initial residual = 0.000609963, Final residual = 9.02497e-10, No Iterations 2
smoothSolver:  Solving for Uz, Initial residual = 0.253016, Final residual = 6.8045e-08, No Iterations 2
GAMG:  Solving for p, Initial residual = 0.0283618, Final residual = 0.00138386, No Iterations 4
time step continuity errors : sum local = 9.65326e-09, global = 1.5535e-09, cumulative = -6.66158e-07
GAMG:  Solving for p, Initial residual = 0.00140462, Final residual = 6.50282e-05, No Iterations 17
time step continuity errors : sum local = 4.5364e-10, global = -1.14913e-10, cumulative = -6.66273e-07
GAMG:  Solving for p, Initial residual = 6.46648e-05, Final residual = 9.098e-07, No Iterations 34
time step continuity errors : sum local = 6.35991e-12, global = -1.95052e-12, cumulative = -6.66275e-07
smoothSolver:  Solving for nuTilda, Initial residual = 3.51736e-05, Final residual = 2.12375e-08, No Iterations 2
ExecutionTime = 266.43 s  ClockTime = 269 s

forceCoeffs forces write:
    Cm    = 0.0915301
    Cd    = 0.18306
    Cl    = 0.000708031
    Cl(f) = 0.0918842
    Cl(r) = -0.0911761

Time = 1.77

Courant Number mean: 0.0136977 max: 0.369453
smoothSolver:  Solving for Ux, Initial residual = 0.000751943, Final residual = 1.25206e-09, No Iterations 2
smoothSolver:  Solving for Uy, Initial residual = 0.000615986, Final residual = 9.01913e-10, No Iterations 2
smoothSolver:  Solving for Uz, Initial residual = 0.244781, Final residual = 4.92971e-08, No Iterations 2
GAMG:  Solving for p, Initial residual = 0.0285296, Final residual = 0.00137747, No Iterations 4
time step continuity errors : sum local = 9.6047e-09, global = 1.46217e-09, cumulative = -6.64813e-07
GAMG:  Solving for p, Initial residual = 0.00139788, Final residual = 5.71971e-05, No Iterations 21
time step continuity errors : sum local = 3.98782e-10, global = -1.0956e-10, cumulative = -6.64922e-07
GAMG:  Solving for p, Initial residual = 5.68011e-05, Final residual = 9.84628e-07, No Iterations 38
time step continuity errors : sum local = 6.88654e-12, global = -1.80577e-12, cumulative = -6.64924e-07
smoothSolver:  Solving for nuTilda, Initial residual = 3.47494e-05, Final residual = 2.08956e-08, No Iterations 2
ExecutionTime = 270.8 s  ClockTime = 273 s

forceCoeffs forces write:
    Cm    = 0.0928686
    Cd    = 0.185737
    Cl    = -0.000574935
    Cl(f) = 0.0925812
    Cl(r) = -0.0931561

Time = 1.8

Courant Number mean: 0.0137012 max: 0.369881
smoothSolver:  Solving for Ux, Initial residual = 0.000759034, Final residual = 1.26618e-09, No Iterations 2
smoothSolver:  Solving for Uy, Initial residual = 0.000605688, Final residual = 8.93186e-10, No Iterations 2
smoothSolver:  Solving for Uz, Initial residual = 0.264611, Final residual = 5.9629e-08, No Iterations 2
GAMG:  Solving for p, Initial residual = 0.0282044, Final residual = 0.00134411, No Iterations 4
time step continuity errors : sum local = 9.38119e-09, global = 1.08061e-09, cumulative = -6.63843e-07
GAMG:  Solving for p, Initial residual = 0.00136688, Final residual = 6.44209e-05, No Iterations 17
time step continuity errors : sum local = 4.48777e-10, global = -1.5404e-10, cumulative = -6.63997e-07
GAMG:  Solving for p, Initial residual = 6.44015e-05, Final residual = 9.93484e-07, No Iterations 37
time step continuity errors : sum local = 6.91131e-12, global = 2.32053e-12, cumulative = -6.63995e-07
smoothSolver:  Solving for nuTilda, Initial residual = 3.4339e-05, Final residual = 2.05637e-08, No Iterations 2
ExecutionTime = 275.1 s  ClockTime = 278 s

forceCoeffs forces write:
    Cm    = 0.092703
    Cd    = 0.185406
    Cl    = -0.00186513
    Cl(f) = 0.0917704
    Cl(r) = -0.0936356

Time = 1.83

Courant Number mean: 0.0137047 max: 0.370309
smoothSolver:  Solving for Ux, Initial residual = 0.000755583, Final residual = 1.2628e-09, No Iterations 2
smoothSolver:  Solving for Uy, Initial residual = 0.000605105, Final residual = 8.90664e-10, No Iterations 2
smoothSolver:  Solving for Uz, Initial residual = 0.246065, Final residual = 5.72669e-08, No Iterations 2
GAMG:  Solving for p, Initial residual = 0.0284047, Final residual = 0.00117764, No Iterations 5
[...]
smoothSolver:  Solving for Uz, Initial residual = 0.153964, Final residual = 2.19484e-08, No Iterations 2
GAMG:  Solving for p, Initial residual = 0.0899985, Final residual = 0.00414682, No Iterations 4
time step continuity errors : sum local = 8.39195e-09, global = -1.4789e-09, cumulative = -5.43923e-07
GAMG:  Solving for p, Initial residual = 0.00418812, Final residual = 0.000183476, No Iterations 20
time step continuity errors : sum local = 3.81385e-10, global = -9.33742e-11, cumulative = -5.44016e-07
GAMG:  Solving for p, Initial residual = 0.000187707, Final residual = 8.16711e-07, No Iterations 50
time step continuity errors : sum local = 1.73899e-12, global = -4.54931e-13, cumulative = -5.44017e-07
smoothSolver:  Solving for nuTilda, Initial residual = 1.83301e-05, Final residual = 8.59724e-08, No Iterations 1
ExecutionTime = 4046.7 s  ClockTime = 4063 s

forceCoeffs forces write:
    Cm    = 0.368657
    Cd    = 0.737313
    Cl    = 0.000177124
    Cl(f) = 0.368745
    Cl(r) = -0.368568

Time = 24.87

Courant Number mean: 0.0153004 max: 0.610611
smoothSolver:  Solving for Ux, Initial residual = 0.000281495, Final residual = 9.09781e-08, No Iterations 1
smoothSolver:  Solving for Uy, Initial residual = 0.000278805, Final residual = 1.495e-09, No Iterations 2
smoothSolver:  Solving for Uz, Initial residual = 0.167127, Final residual = 2.59536e-08, No Iterations 2
GAMG:  Solving for p, Initial residual = 0.0875672, Final residual = 0.00233544, No Iterations 5
time step continuity errors : sum local = 4.989e-09, global = 9.01065e-10, cumulative = -5.43116e-07
GAMG:  Solving for p, Initial residual = 0.00252253, Final residual = 0.000102394, No Iterations 20
time step continuity errors : sum local = 2.17424e-10, global = 4.70477e-11, cumulative = -5.43068e-07
GAMG:  Solving for p, Initial residual = 0.000112209, Final residual = 8.4717e-07, No Iterations 42
time step continuity errors : sum local = 1.77758e-12, global = 4.32758e-13, cumulative = -5.43068e-07
smoothSolver:  Solving for nuTilda, Initial residual = 1.8257e-05, Final residual = 8.50381e-08, No Iterations 1
ExecutionTime = 4051.14 s  ClockTime = 4067 s

forceCoeffs forces write:
    Cm    = 0.367319
    Cd    = 0.734638
    Cl    = -0.000335165
    Cl(f) = 0.367152
    Cl(r) = -0.367487

Time = 24.9

Courant Number mean: 0.0153018 max: 0.610648
smoothSolver:  Solving for Ux, Initial residual = 0.000278302, Final residual = 8.97456e-08, No Iterations 1
smoothSolver:  Solving for Uy, Initial residual = 0.000282864, Final residual = 1.49915e-09, No Iterations 2
smoothSolver:  Solving for Uz, Initial residual = 0.160365, Final residual = 2.33748e-08, No Iterations 2
GAMG:  Solving for p, Initial residual = 0.0882827, Final residual = 0.00395567, No Iterations 6
time step continuity errors : sum local = 8.28027e-09, global = 1.75096e-09, cumulative = -5.41317e-07
GAMG:  Solving for p, Initial residual = 0.00448089, Final residual = 0.000195673, No Iterations 22
time step continuity errors : sum local = 3.75725e-10, global = 8.74752e-11, cumulative = -5.4123e-07
GAMG:  Solving for p, Initial residual = 0.000215703, Final residual = 8.49755e-07, No Iterations 50
time step continuity errors : sum local = 1.55338e-12, global = 3.9906e-13, cumulative = -5.41229e-07
smoothSolver:  Solving for nuTilda, Initial residual = 1.81753e-05, Final residual = 8.45151e-08, No Iterations 1
ExecutionTime = 4056.61 s  ClockTime = 4073 s

forceCoeffs forces write:
    Cm    = 0.362246
    Cd    = 0.724492
    Cl    = 0.00184628
    Cl(f) = 0.363169
    Cl(r) = -0.361323

Time = 24.93

Courant Number mean: 0.015303 max: 0.610679
smoothSolver:  Solving for Ux, Initial residual = 0.000265132, Final residual = 8.3288e-08, No Iterations 1
smoothSolver:  Solving for Uy, Initial residual = 0.000289601, Final residual = 1.51571e-09, No Iterations 2
smoothSolver:  Solving for Uz, Initial residual = 0.160114, Final residual = 2.57036e-08, No Iterations 2
GAMG:  Solving for p, Initial residual = 0.102059, Final residual = 0.00478389, No Iterations 8
time step continuity errors : sum local = 8.73291e-09, global = -1.53914e-09, cumulative = -5.42768e-07
GAMG:  Solving for p, Initial residual = 0.00442631, Final residual = 0.000198169, No Iterations 24
time step continuity errors : sum local = 4.0612e-10, global = -1.01882e-10, cumulative = -5.4287e-07
GAMG:  Solving for p, Initial residual = 0.000197314, Final residual = 8.745e-07, No Iterations 50
time step continuity errors : sum local = 1.87486e-12, global = -4.90428e-13, cumulative = -5.42871e-07
smoothSolver:  Solving for nuTilda, Initial residual = 1.81061e-05, Final residual = 8.35962e-08, No Iterations 1
ExecutionTime = 4061.68 s  ClockTime = 4078 s

forceCoeffs forces write:
    Cm    = 0.367816
    Cd    = 0.735632
    Cl    = -0.00211431
    Cl(f) = 0.366759
    Cl(r) = -0.368873

Time = 24.96

Courant Number mean: 0.0153043 max: 0.610713
smoothSolver:  Solving for Ux, Initial residual = 0.000280493, Final residual = 9.06453e-08, No Iterations 1
smoothSolver:  Solving for Uy, Initial residual = 0.000282779, Final residual = 1.50333e-09, No Iterations 2
smoothSolver:  Solving for Uz, Initial residual = 0.169294, Final residual = 2.29564e-08, No Iterations 2
GAMG:  Solving for p, Initial residual = 0.0854247, Final residual = 0.00279695, No Iterations 5
time step continuity errors : sum local = 6.00947e-09, global = -7.39913e-10, cumulative = -5.43611e-07
GAMG:  Solving for p, Initial residual = 0.0029637, Final residual = 0.000134575, No Iterations 19
time step continuity errors : sum local = 2.88295e-10, global = 8.7402e-11, cumulative = -5.43523e-07
GAMG:  Solving for p, Initial residual = 0.000143453, Final residual = 8.6068e-07, No Iterations 48
time step continuity errors : sum local = 1.83686e-12, global = 5.45953e-13, cumulative = -5.43523e-07
smoothSolver:  Solving for nuTilda, Initial residual = 1.8032e-05, Final residual = 8.26654e-08, No Iterations 1
ExecutionTime = 4066.38 s  ClockTime = 4082 s

forceCoeffs forces write:
    Cm    = 0.367317
    Cd    = 0.734634
    Cl    = -0.000525046
    Cl(f) = 0.367054
    Cl(r) = -0.367579

Time = 24.99

Courant Number mean: 0.0153058 max: 0.610748
smoothSolver:  Solving for Ux, Initial residual = 0.000281727, Final residual = 9.08056e-08, No Iterations 1
smoothSolver:  Solving for Uy, Initial residual = 0.000277318, Final residual = 1.50155e-09, No Iterations 2
smoothSolver:  Solving for Uz, Initial residual = 0.152697, Final residual = 2.35916e-08, No Iterations 2
GAMG:  Solving for p, Initial residual = 0.0859108, Final residual = 0.00408591, No Iterations 6
time step continuity errors : sum local = 8.69682e-09, global = 1.97957e-09, cumulative = -5.41543e-07
GAMG:  Solving for p, Initial residual = 0.00461356, Final residual = 0.000207927, No Iterations 24
time step continuity errors : sum local = 4.05162e-10, global = 9.98563e-11, cumulative = -5.41443e-07
GAMG:  Solving for p, Initial residual = 0.000229117, Final residual = 9.8589e-07, No Iterations 50
time step continuity errors : sum local = 1.81536e-12, global = 4.70716e-13, cumulative = -5.41443e-07
smoothSolver:  Solving for nuTilda, Initial residual = 1.79522e-05, Final residual = 8.17546e-08, No Iterations 1
ExecutionTime = 4071.45 s  ClockTime = 4087 s

forceCoeffs forces write:
    Cm    = 0.361488
    Cd    = 0.722977
    Cl    = 0.00291748
    Cl(f) = 0.362947
    Cl(r) = -0.36003

Time = 25.02

Courant Number mean: 0.015307 max: 0.610778
smoothSolver:  Solving for Ux, Initial residual = 0.000264837, Final residual = 8.31789e-08, No Iterations 1
smoothSolver:  Solving for Uy, Initial residual = 0.000290698, Final residual = 1.52608e-09, No Iterations 2
smoothSolver:  Solving for Uz, Initial residual = 0.166247, Final residual = 3.18573e-08, No Iterations 2
GAMG:  Solving for p, Initial residual = 0.0990668, Final residual = 0.00425482, No Iterations 6
time step continuity errors : sum local = 7.83178e-09, global = -1.5679e-09, cumulative = -5.43011e-07
GAMG:  Solving for p, Initial residual = 0.00420355, Final residual = 0.000197899, No Iterations 26
time step continuity errors : sum local = 3.84673e-10, global = -1.06029e-10, cumulative = -5.43117e-07
GAMG:  Solving for p, Initial residual = 0.000200186, Final residual = 8.10959e-07, No Iterations 52
time step continuity errors : sum local = 1.6202e-12, global = -4.36032e-13, cumulative = -5.43117e-07
smoothSolver:  Solving for nuTilda, Initial residual = 1.78731e-05, Final residual = 8.08891e-08, No Iterations 1
ExecutionTime = 4076.66 s  ClockTime = 4093 s

forceCoeffs forces write:
    Cm    = 0.364394
    Cd    = 0.728789
    Cl    = -0.00180763
    Cl(f) = 0.36349
    Cl(r) = -0.365298

Time = 25.05

Courant Number mean: 0.0153083 max: 0.610808
smoothSolver:  Solving for Ux, Initial residual = 0.000272335, Final residual = 8.70977e-08, No Iterations 1
smoothSolver:  Solving for Uy, Initial residual = 0.000280113, Final residual = 1.51369e-09, No Iterations 2
smoothSolver:  Solving for Uz, Initial residual = 0.165889, Final residual = 2.55661e-08, No Iterations 2
GAMG:  Solving for p, Initial residual = 0.0914168, Final residual = 0.00330798, No Iterations 6
time step continuity errors : sum local = 6.61321e-09, global = -1.21027e-09, cumulative = -5.44327e-07
GAMG:  Solving for p, Initial residual = 0.00331492, Final residual = 0.000162282, No Iterations 22
time step continuity errors : sum local = 3.40279e-10, global = -9.07942e-11, cumulative = -5.44418e-07
GAMG:  Solving for p, Initial residual = 0.00016607, Final residual = 9.20133e-07, No Iterations 44
time step continuity errors : sum local = 1.9598e-12, global = -5.0483e-13, cumulative = -5.44419e-07
smoothSolver:  Solving for nuTilda, Initial residual = 1.78044e-05, Final residual = 8.00578e-08, No Iterations 1
ExecutionTime = 4081.3 s  ClockTime = 4097 s

forceCoeffs forces write:
    Cm    = 0.36631
    Cd    = 0.732621
    Cl    = 0.00175766
    Cl(f) = 0.367189
    Cl(r) = -0.365432

Time = 25.08

Courant Number mean: 0.0153097 max: 0.610841
smoothSolver:  Solving for Ux, Initial residual = 0.000280787, Final residual = 8.98154e-08, No Iterations 1
smoothSolver:  Solving for Uy, Initial residual = 0.000278433, Final residual = 1.51349e-09, No Iterations 2
smoothSolver:  Solving for Uz, Initial residual = 0.155268, Final residual = 2.2793e-08, No Iterations 2
GAMG:  Solving for p, Initial residual = 0.0859077, Final residual = 0.00344929, No Iterations 6
time step continuity errors : sum local = 7.35504e-09, global = 1.42109e-09, cumulative = -5.42998e-07
GAMG:  Solving for p, Initial residual = 0.0037865, Final residual = 0.000169716, No Iterations 20
time step continuity errors : sum local = 3.43544e-10, global = 7.31661e-11, cumulative = -5.42924e-07
GAMG:  Solving for p, Initial residual = 0.0001824, Final residual = 8.74511e-07, No Iterations 44
time step continuity errors : sum local = 1.71718e-12, global = 3.98514e-13, cumulative = -5.42924e-07
smoothSolver:  Solving for nuTilda, Initial residual = 1.77294e-05, Final residual = 7.92546e-08, No Iterations 1
ExecutionTime = 4085.93 s  ClockTime = 4102 s

forceCoeffs forces write:
    Cm    = 0.363287
    Cd    = 0.726574
    Cl    = 0.00147429
    Cl(f) = 0.364024
    Cl(r) = -0.36255

Time = 25.11

Courant Number mean: 0.0153111 max: 0.610872
smoothSolver:  Solving for Ux, Initial residual = 0.000274973, Final residual = 8.70328e-08, No Iterations 1
smoothSolver:  Solving for Uy, Initial residual = 0.000274937, Final residual = 1.51869e-09, No Iterations 2
smoothSolver:  Solving for Uz, Initial residual = 0.164059, Final residual = 2.76279e-08, No Iterations 2
GAMG:  Solving for p, Initial residual = 0.0940935, Final residual = 0.00455773, No Iterations 4
time step continuity errors : sum local = 8.93978e-09, global = 1.16252e-09, cumulative = -5.41762e-07
GAMG:  Solving for p, Initial residual = 0.00466149, Final residual = 0.000232254, No Iterations 15
time step continuity errors : sum local = 4.60309e-10, global = -1.29397e-10, cumulative = -5.41891e-07
GAMG:  Solving for p, Initial residual = 0.000240096, Final residual = 8.63823e-07, No Iterations 45
time step continuity errors : sum local = 1.71557e-12, global = 4.47375e-13, cumulative = -5.4189e-07
smoothSolver:  Solving for nuTilda, Initial residual = 1.76502e-05, Final residual = 7.84272e-08, No Iterations 1
ExecutionTime = 4090.65 s  ClockTime = 4107 s

forceCoeffs forces write:
    Cm    = 0.362839
    Cd    = 0.725679
    Cl    = 0.000156022
    Cl(f) = 0.362917
    Cl(r) = -0.362761

Time = 25.14

Courant Number mean: 0.0153124 max: 0.610901
smoothSolver:  Solving for Ux, Initial residual = 0.000271107, Final residual = 8.57954e-08, No Iterations 1
smoothSolver:  Solving for Uy, Initial residual = 0.000283491, Final residual = 1.5255e-09, No Iterations 2
smoothSolver:  Solving for Uz, Initial residual = 0.15133, Final residual = 1.89781e-08, No Iterations 2
GAMG:  Solving for p, Initial residual = 0.092686, Final residual = 0.00302915, No Iterations 6
time step continuity errors : sum local = 6.01191e-09, global = -1.01185e-09, cumulative = -5.42902e-07
GAMG:  Solving for p, Initial residual = 0.00304284, Final residual = 0.000138865, No Iterations 22
time step continuity errors : sum local = 2.90399e-10, global = -7.63358e-11, cumulative = -5.42979e-07
GAMG:  Solving for p, Initial residual = 0.000143804, Final residual = 8.28525e-07, No Iterations 48
time step continuity errors : sum local = 1.763e-12, global = -4.73484e-13, cumulative = -5.42979e-07
smoothSolver:  Solving for nuTilda, Initial residual = 1.75629e-05, Final residual = 7.75666e-08, No Iterations 1
ExecutionTime = 4096.01 s  ClockTime = 4112 s

forceCoeffs forces write:
    Cm    = 0.364981
    Cd    = 0.729962
    Cl    = -0.00195434
    Cl(f) = 0.364004
    Cl(r) = -0.365958

Time = 25.17

Courant Number mean: 0.0153138 max: 0.610931
smoothSolver:  Solving for Ux, Initial residual = 0.000278272, Final residual = 8.90886e-08, No Iterations 1
smoothSolver:  Solving for Uy, Initial residual = 0.000285766, Final residual = 1.52254e-09, No Iterations 2
smoothSolver:  Solving for Uz, Initial residual = 0.142305, Final residual = 2.24016e-08, No Iterations 2
GAMG:  Solving for p, Initial residual = 0.0861908, Final residual = 0.00324408, No Iterations 6
time step continuity errors : sum local = 6.90447e-09, global = 1.45844e-09, cumulative = -5.41521e-07
GAMG:  Solving for p, Initial residual = 0.00355763, Final residual = 0.000172175, No Iterations 18
time step continuity errors : sum local = 3.49577e-10, global = 7.61986e-11, cumulative = -5.41445e-07
GAMG:  Solving for p, Initial residual = 0.0001832, Final residual = 8.27616e-07, No Iterations 46
time step continuity errors : sum local = 1.6427e-12, global = 4.19915e-13, cumulative = -5.41444e-07
smoothSolver:  Solving for nuTilda, Initial residual = 1.74821e-05, Final residual = 7.66889e-08, No Iterations 1
ExecutionTime = 4100.89 s  ClockTime = 4117 s

forceCoeffs forces write:
    Cm    = 0.362609
    Cd    = 0.725218
    Cl    = 8.57135e-05
    Cl(f) = 0.362652
    Cl(r) = -0.362566

Time = 25.2

Courant Number mean: 0.0153152 max: 0.61096
smoothSolver:  Solving for Ux, Initial residual = 0.00027237, Final residual = 8.65836e-08, No Iterations 1
smoothSolver:  Solving for Uy, Initial residual = 0.000277974, Final residual = 1.52635e-09, No Iterations 2
smoothSolver:  Solving for Uz, Initial residual = 0.146413, Final residual = 2.60905e-08, No Iterations 2
GAMG:  Solving for p, Initial residual = 0.0919134, Final residual = 0.00401948, No Iterations 6
time step continuity errors : sum local = 7.96973e-09, global = 1.59413e-09, cumulative = -5.3985e-07
GAMG:  Solving for p, Initial residual = 0.00441469, Final residual = 0.000183028, No Iterations 26
time step continuity errors : sum local = 3.42393e-10, global = 8.72765e-11, cumulative = -5.39763e-07
GAMG:  Solving for p, Initial residual = 0.000196616, Final residual = 8.67719e-07, No Iterations 50
time step continuity errors : sum local = 1.56876e-12, global = 4.05295e-13, cumulative = -5.39762e-07
smoothSolver:  Solving for nuTilda, Initial residual = 1.73988e-05, Final residual = 7.5829e-08, No Iterations 1
ExecutionTime = 4106.39 s  ClockTime = 4122 s

forceCoeffs forces write:
    Cm    = 0.358234
    Cd    = 0.716469
    Cl    = 0.000488251
    Cl(f) = 0.358479
    Cl(r) = -0.35799

Time = 25.23

Courant Number mean: 0.0153163 max: 0.610984
smoothSolver:  Solving for Ux, Initial residual = 0.000262733, Final residual = 8.08157e-08, No Iterations 1
smoothSolver:  Solving for Uy, Initial residual = 0.00029678, Final residual = 1.54264e-09, No Iterations 2
smoothSolver:  Solving for Uz, Initial residual = 0.163238, Final residual = 2.86599e-08, No Iterations 2
GAMG:  Solving for p, Initial residual = 0.10095, Final residual = 0.00417276, No Iterations 10
time step continuity errors : sum local = 7.5394e-09, global = -1.11457e-09, cumulative = -5.40877e-07
GAMG:  Solving for p, Initial residual = 0.00377655, Final residual = 0.000165347, No Iterations 24
time step continuity errors : sum local = 3.44635e-10, global = -8.2146e-11, cumulative = -5.40959e-07
GAMG:  Solving for p, Initial residual = 0.000165888, Final residual = 8.06041e-07, No Iterations 48
time step continuity errors : sum local = 1.73874e-12, global = -4.37208e-13, cumulative = -5.40959e-07
smoothSolver:  Solving for nuTilda, Initial residual = 1.73311e-05, Final residual = 7.4953e-08, No Iterations 1
ExecutionTime = 4111.79 s  ClockTime = 4128 s

forceCoeffs forces write:
    Cm    = 0.365125
    Cd    = 0.73025
    Cl    = 0.00123881
    Cl(f) = 0.365745
    Cl(r) = -0.364506

Time = 25.26

Courant Number mean: 0.0153177 max: 0.611013
smoothSolver:  Solving for Ux, Initial residual = 0.0002842, Final residual = 9.01311e-08, No Iterations 1
smoothSolver:  Solving for Uy, Initial residual = 0.000271734, Final residual = 1.52273e-09, No Iterations 2
smoothSolver:  Solving for Uz, Initial residual = 0.15256, Final residual = 2.62435e-08, No Iterations 2
GAMG:  Solving for p, Initial residual = 0.0850892, Final residual = 0.00343429, No Iterations 6
time step continuity errors : sum local = 7.41921e-09, global = 1.6396e-09, cumulative = -5.3932e-07
GAMG:  Solving for p, Initial residual = 0.00374918, Final residual = 0.000164533, No Iterations 24
time step continuity errors : sum local = 3.3909e-10, global = 8.21973e-11, cumulative = -5.39238e-07
GAMG:  Solving for p, Initial residual = 0.000174424, Final residual = 8.5799e-07, No Iterations 46
time step continuity errors : sum local = 1.72186e-12, global = 4.08239e-13, cumulative = -5.39237e-07
smoothSolver:  Solving for nuTilda, Initial residual = 1.7255e-05, Final residual = 7.40869e-08, No Iterations 1
ExecutionTime = 4117.48 s  ClockTime = 4133 s

forceCoeffs forces write:
    Cm    = 0.361522
    Cd    = 0.723045
    Cl    = -0.00143732
    Cl(f) = 0.360804
    Cl(r) = -0.362241

Time = 25.29

Courant Number mean: 0.0153191 max: 0.61104
smoothSolver:  Solving for Ux, Initial residual = 0.000270669, Final residual = 8.55972e-08, No Iterations 1
smoothSolver:  Solving for Uy, Initial residual = 0.000288083, Final residual = 1.53596e-09, No Iterations 2
smoothSolver:  Solving for Uz, Initial residual = 0.150559, Final residual = 2.46965e-08, No Iterations 2
GAMG:  Solving for p, Initial residual = 0.0924533, Final residual = 0.00313663, No Iterations 6
time step continuity errors : sum local = 6.28225e-09, global = -1.25996e-09, cumulative = -5.40497e-07
GAMG:  Solving for p, Initial residual = 0.00317124, Final residual = 0.000129558, No Iterations 26
time step continuity errors : sum local = 2.70216e-10, global = -6.98627e-11, cumulative = -5.40567e-07
GAMG:  Solving for p, Initial residual = 0.000133559, Final residual = 8.90603e-07, No Iterations 46
time step continuity errors : sum local = 1.88679e-12, global = -4.83271e-13, cumulative = -5.40568e-07
